#	Name: UNK
#	Creating user name:	iorga
#	Creation time:	10. 07. 2020 09:44

#	Modifying user name:	iorga
#	Modification time:	10. 07. 2020 09:44

#	Program:	corina 4.2.0 0026  27.09.2018

@<TRIPOS>MOLECULE
UNK
  28   28    0    0    0
SMALL
NO_CHARGES


@<TRIPOS>ATOM
   1 C1             1.4398    10.1791    -1.8192 C.3     
   2 S2            -0.1524     9.7093    -2.5505 S.o2    
   3 O3            -0.1950    10.0677    -3.9249 O.2     
   4 O4            -1.2207    10.0399    -1.6737 O.2     
   5 N5            -0.1300     8.0535    -2.5607 N.am    
   6 C6            -0.1105     7.3726    -1.3978 C.2     
   7 O7            -0.1095     7.9725    -0.3438 O.2     
   8 C8            -0.0901     5.8658    -1.4071 C.3     
   9 C9            -0.0705     5.3471     0.0321 C.3     
  10 C10           -0.0501     3.8402     0.0228 C.ar    
  11 C11            1.1563     3.1654     0.0081 C.ar    
  12 C12            1.1750     1.7832     0.0004 C.ar    
  13 C13           -0.0126     1.0758     0.0080 C.ar    
  14 C14           -1.2190     1.7506     0.0173 C.ar    
  15 C15           -1.2377     3.1328     0.0294 C.ar    
  16 H16            2.2511     9.7869    -2.4325 H       
  17 H17            1.5119    11.2657    -1.7729 H       
  18 H18            1.5132     9.7668    -0.8128 H       
  19 H19           -0.1308     7.5737    -3.4037 H       
  20 H20            0.8001     5.5177    -1.9309 H       
  21 H21           -0.9796     5.4935    -1.9154 H       
  22 H22           -0.9608     5.6951     0.5560 H       
  23 H23            0.8190     5.7193     0.5404 H       
  24 H24            2.0842     3.7181     0.0029 H       
  25 H25            2.1175     1.2560    -0.0111 H       
  26 H26            0.0021    -0.0041     0.0020 H       
  27 H27           -2.1469     1.1980     0.0188 H       
  28 H28           -2.1802     3.6600     0.0413 H       
@<TRIPOS>BOND
   1    1    2 1
   2    1   16 1
   3    1   17 1
   4    1   18 1
   5    2    3 2
   6    2    4 2
   7    2    5 am
   8    5    6 am
   9    5   19 1
  10    6    7 2
  11    6    8 1
  12    8    9 1
  13    8   20 1
  14    8   21 1
  15    9   10 1
  16    9   22 1
  17    9   23 1
  18   10   15 ar
  19   10   11 ar
  20   11   12 ar
  21   11   24 1
  22   12   13 ar
  23   12   25 1
  24   13   14 ar
  25   13   26 1
  26   14   15 ar
  27   14   27 1
  28   15   28 1

#	End of record

