#	Name: SM44
#	Creating user name:	iorga
#	Creation time:	09. 07. 2020 11:40

#	Modifying user name:	iorga
#	Modification time:	09. 07. 2020 11:40

#	Program:	corina 4.2.0 0026  27.09.2018

@<TRIPOS>MOLECULE
UNK 
  26   27    0    0    0
UNK L
NO_CHARGES


@<TRIPOS>ATOM
   1 O1            -2.4342     0.7435     0.0434 O.2     
   2 S2            -1.4563     1.7742     0.0186 S.o2    
   3 N3            -0.0111     0.9658     0.0074 N.am    
   4 C4             1.1952     1.6843    -0.0003 C.2     
   5 N5             1.3355     3.0174     0.0060 N.2     
   6 N6             2.5876     3.3093    -0.0046 N.2     
   7 C7             2.4511     1.1657    -0.0096 C.2     
   8 N8             3.2983     2.2362    -0.0177 N.pl3   
   9 C9             4.6992     2.1771    -0.0325 C.ar    
  10 C10            5.3434     0.9473    -0.0405 C.ar    
  11 C11            6.7233     0.8922    -0.0613 C.ar    
  12 C12            7.4633     2.0604    -0.0616 C.ar    
  13 C13            6.8246     3.2867    -0.0479 C.ar    
  14 C14            5.4448     3.3481    -0.0333 C.ar    
  15 C15           -1.4964     2.6518    -1.5685 C.3     
  16 O16           -1.3346     2.6947     1.0943 O.2     
  17 H17            0.0021    -0.0041     0.0020 H       
  18 H18            2.7234     0.1206    -0.0120 H       
  19 H19            4.7660     0.0346    -0.0350 H       
  20 H20            7.2250    -0.0641    -0.0724 H       
  21 H21            8.5423     2.0148    -0.0730 H       
  22 H22            7.4052     4.1974    -0.0489 H       
  23 H23            4.9465     4.3062    -0.0229 H       
  24 H24           -1.4399     1.9306    -2.3839 H       
  25 H25           -2.4248     3.2175    -1.6475 H       
  26 H26           -0.6488     3.3344    -1.6278 H       
@<TRIPOS>BOND
   1    1    2 2
   2    2    3 am
   3    2   15 1
   4    2   16 2
   5    3    4 1
   6    3   17 1
   7    4    5 1
   8    4    7 2
   9    5    6 2
  10    6    8 1
  11    7    8 1
  12    7   18 1
  13    8    9 1
  14    9   14 ar
  15    9   10 ar
  16   10   11 ar
  17   10   19 1
  18   11   12 ar
  19   11   20 1
  20   12   13 ar
  21   12   21 1
  22   13   14 ar
  23   13   22 1
  24   14   23 1
  25   15   24 1
  26   15   25 1
  27   15   26 1

#	End of record

