#	Name: SM46
#	Creating user name:	iorga
#	Creation time:	09. 07. 2020 11:40

#	Modifying user name:	iorga
#	Modification time:	09. 07. 2020 11:40

#	Program:	corina 4.2.0 0026  27.09.2018

@<TRIPOS>MOLECULE
UNK 
  31   32    0    0    0
UNK L
NO_CHARGES


@<TRIPOS>ATOM
   1 O1            -2.4719     0.7810    -0.0167 O.2     
   2 S2            -1.4563     1.7742     0.0186 S.o2    
   3 N3            -0.0111     0.9658     0.0074 N.am    
   4 C4             1.1952     1.6843    -0.0003 C.2     
   5 N5             1.3355     3.0174     0.0060 N.2     
   6 N6             2.5876     3.3093    -0.0046 N.2     
   7 C7             2.4511     1.1657    -0.0096 C.2     
   8 N8             3.2983     2.2362    -0.0177 N.pl3   
   9 C9             4.6992     2.1771    -0.0325 C.ar    
  10 C10            5.3434     0.9473    -0.0405 C.ar    
  11 C11            6.7233     0.8922    -0.0613 C.ar    
  12 C12            7.4633     2.0604    -0.0616 C.ar    
  13 C13            6.8246     3.2867    -0.0479 C.ar    
  14 C14            5.4448     3.3481    -0.0333 C.ar    
  15 N15           -1.5645     2.6048    -1.4100 N.am    
  16 C16           -2.1763     1.9715    -2.5809 C.3     
  17 C17           -1.0485     3.9727    -1.5029 C.3     
  18 O18           -1.3610     2.7523     1.0451 O.2     
  19 H19            0.0021    -0.0041     0.0020 H       
  20 H20            2.7234     0.1206    -0.0120 H       
  21 H21            4.7660     0.0346    -0.0350 H       
  22 H22            7.2250    -0.0641    -0.0724 H       
  23 H23            8.5423     2.0148    -0.0730 H       
  24 H24            7.4052     4.1974    -0.0489 H       
  25 H25            4.9465     4.3062    -0.0229 H       
  26 H26           -3.2462     2.1800    -2.5892 H       
  27 H27           -1.7216     2.3692    -3.4882 H       
  28 H28           -2.0164     0.8942    -2.5364 H       
  29 H29           -0.0024     3.9465    -1.8080 H       
  30 H30           -1.6278     4.5303    -2.2389 H       
  31 H31           -1.1314     4.4591    -0.5310 H       
@<TRIPOS>BOND
   1    1    2 2
   2    2    3 am
   3    2   15 am
   4    2   18 2
   5    3    4 1
   6    3   19 1
   7    4    5 1
   8    4    7 2
   9    5    6 2
  10    6    8 1
  11    7    8 1
  12    7   20 1
  13    8    9 1
  14    9   14 ar
  15    9   10 ar
  16   10   11 ar
  17   10   21 1
  18   11   12 ar
  19   11   22 1
  20   12   13 ar
  21   12   23 1
  22   13   14 ar
  23   13   24 1
  24   14   25 1
  25   15   16 1
  26   15   17 1
  27   16   26 1
  28   16   27 1
  29   16   28 1
  30   17   29 1
  31   17   30 1
  32   17   31 1

#	End of record

