@<TRIPOS>MOLECULE
UNK
   29    29     1     0     0
SMALL
bcc


@<TRIPOS>ATOM
      1 C1          0.8090   10.4290   -2.3120 c3        1 UNK     -0.362300
      2 S2         -0.5250    9.4710   -3.0820 s6        1 UNK      1.468900
      3 O3         -0.4640    9.5800   -4.4970 o         1 UNK     -0.655300
      4 O4         -1.7470    9.6680   -2.3840 o         1 UNK     -0.655300
      5 N5         -0.1300    7.8920   -2.7760 n3        1 UNK     -0.928100
      6 C6         -0.1110    7.3960   -1.3980 c3        1 UNK      0.221800
      7 C7         -0.0900    5.8660   -1.4070 c3        1 UNK     -0.092400
      8 C8         -0.0700    5.3470    0.0320 c3        1 UNK     -0.035100
      9 C9         -0.0500    3.8400    0.0230 ca        1 UNK     -0.083300
     10 C10         1.1560    3.1650    0.0080 ca        1 UNK     -0.126000
     11 C11         1.1750    1.7830    0.0000 ca        1 UNK     -0.127500
     12 C12        -0.0130    1.0760    0.0080 ca        1 UNK     -0.130000
     13 C13        -1.2190    1.7510    0.0170 ca        1 UNK     -0.127500
     14 C14        -1.2380    3.1330    0.0290 ca        1 UNK     -0.126000
     15 H15         1.7620   10.1530   -2.7630 h1        1 UNK      0.112700
     16 H16         0.6280   11.4930   -2.4660 h1        1 UNK      0.112700
     17 H17         0.8390   10.2170   -1.2430 h1        1 UNK      0.112700
     18 H18         0.0900    7.2960   -3.5090 hn        1 UNK      0.450800
     19 H19        -1.0010    7.7440   -0.8740 h1        1 UNK      0.050200
     20 H20         0.7790    7.7680   -0.8890 h1        1 UNK      0.050200
     21 H21         0.8000    5.5180   -1.9310 hc        1 UNK      0.054200
     22 H22        -0.9800    5.4930   -1.9150 hc        1 UNK      0.054200
     23 H23        -0.9610    5.6950    0.5560 hc        1 UNK      0.050200
     24 H24         0.8190    5.7190    0.5400 hc        1 UNK      0.050200
     25 H25         2.0840    3.7180    0.0030 ha        1 UNK      0.131500
     26 H26         2.1180    1.2560   -0.0110 ha        1 UNK      0.132000
     27 H27         0.0020   -0.0040    0.0020 ha        1 UNK      0.132000
     28 H28        -2.1470    1.1980    0.0190 ha        1 UNK      0.132000
     29 H29        -2.1800    3.6600    0.0410 ha        1 UNK      0.131500
@<TRIPOS>BOND
     1    1    2 1   
     2    1   15 1   
     3    1   16 1   
     4    1   17 1   
     5    2    3 2   
     6    2    4 2   
     7    2    5 1   
     8    5    6 1   
     9    5   18 1   
    10    6    7 1   
    11    6   19 1   
    12    6   20 1   
    13    7    8 1   
    14    7   21 1   
    15    7   22 1   
    16    8    9 1   
    17    8   23 1   
    18    8   24 1   
    19    9   10 ar  
    20    9   14 ar  
    21   10   11 ar  
    22   10   25 1   
    23   11   12 ar  
    24   11   26 1   
    25   12   13 ar  
    26   12   27 1   
    27   13   14 ar  
    28   13   28 1   
    29   14   29 1   
@<TRIPOS>SUBSTRUCTURE
     1 UNK         1 TEMP              0 ****  ****    0 ROOT
