@<TRIPOS>MOLECULE
UNK
   40    41     1     0     0
SMALL
bcc


@<TRIPOS>ATOM
      1 O1         -3.0680   -1.6100   -2.4980 o         1 UNK     -0.648800
      2 S2         -1.9080   -0.8630   -2.1560 s6        1 UNK      1.570800
      3 N3         -2.4410    0.6200   -1.6470 n3        1 UNK     -0.900100
      4 C4         -1.4820    1.6160   -1.1620 cy        1 UNK      0.303200
      5 C5         -0.8180    1.2180    0.1580 cy        1 UNK     -0.101100
      6 S6         -2.2600    1.8390    1.0680 s4        1 UNK      0.238600
      7 O7         -3.3350    0.8100    0.7470 o         1 UNK     -0.487200
      8 C8         -2.1490    2.8040   -0.4650 cy        1 UNK     -0.101100
      9 C9         -0.4790    2.0350   -2.2380 c3        1 UNK     -0.085400
     10 C10        -1.2300    2.4130   -3.5170 c3        1 UNK     -0.027100
     11 C11        -0.2410    2.8260   -4.5770 ca        1 UNK     -0.088300
     12 C12         0.1380    4.1500   -4.6900 ca        1 UNK     -0.126000
     13 C13         1.0480    4.5280   -5.6590 ca        1 UNK     -0.132500
     14 C14         1.5710    3.5830   -6.5220 ca        1 UNK     -0.132000
     15 C15         1.1880    2.2600   -6.4120 ca        1 UNK     -0.132500
     16 C16         0.2820    1.8810   -5.4390 ca        1 UNK     -0.126000
     17 N17        -1.2360   -1.6180   -0.8440 n3        1 UNK     -0.813500
     18 C18        -2.0960   -2.2680    0.1480 c3        1 UNK      0.203100
     19 C19         0.2200   -1.6370   -0.6760 c3        1 UNK      0.203100
     20 O20        -0.8460   -0.6180   -3.0660 o         1 UNK     -0.648800
     21 H21        -3.3880    0.8290   -1.6710 hn        1 UNK      0.453800
     22 H22        -0.6770    0.1420    0.2600 h1        1 UNK      0.098950
     23 H23         0.0930    1.7800    0.3650 h1        1 UNK      0.098950
     24 H24        -1.4940    3.6720   -0.3780 h1        1 UNK      0.098950
     25 H25        -3.1220    3.0570   -0.8850 h1        1 UNK      0.098950
     26 H26         0.0940    2.8930   -1.8860 hc        1 UNK      0.057200
     27 H27         0.1980    1.2060   -2.4460 hc        1 UNK      0.057200
     28 H28        -1.8030    1.5550   -3.8680 hc        1 UNK      0.053700
     29 H29        -1.9070    3.2420   -3.3090 hc        1 UNK      0.053700
     30 H30        -0.2750    4.8890   -4.0190 ha        1 UNK      0.145500
     31 H31         1.3470    5.5630   -5.7450 ha        1 UNK      0.130000
     32 H32         2.2790    3.8790   -7.2820 ha        1 UNK      0.129000
     33 H33         1.5970    1.5220   -7.0860 ha        1 UNK      0.130000
     34 H34        -0.0180    0.8470   -5.3540 ha        1 UNK      0.145500
     35 H35        -2.2590   -3.3070   -0.1370 h1        1 UNK      0.046367
     36 H36        -1.6150   -2.2310    1.1260 h1        1 UNK      0.046367
     37 H37        -3.0530   -1.7500    0.1940 h1        1 UNK      0.046367
     38 H38         0.6830   -1.0260   -1.4520 h1        1 UNK      0.046367
     39 H39         0.4770   -1.2360    0.3040 h1        1 UNK      0.046367
     40 H40         0.5820   -2.6620   -0.7560 h1        1 UNK      0.046367
@<TRIPOS>BOND
     1    1    2 2   
     2    2    3 1   
     3    2   17 1   
     4    2   20 2   
     5    3    4 1   
     6    3   21 1   
     7    4    5 1   
     8    4    8 1   
     9    4    9 1   
    10    5    6 1   
    11    5   22 1   
    12    5   23 1   
    13    6    7 2   
    14    6    8 1   
    15    8   24 1   
    16    8   25 1   
    17    9   10 1   
    18    9   26 1   
    19    9   27 1   
    20   10   11 1   
    21   10   28 1   
    22   10   29 1   
    23   11   12 ar  
    24   11   16 ar  
    25   12   13 ar  
    26   12   30 1   
    27   13   14 ar  
    28   13   31 1   
    29   14   15 ar  
    30   14   32 1   
    31   15   16 ar  
    32   15   33 1   
    33   16   34 1   
    34   17   18 1   
    35   17   19 1   
    36   18   35 1   
    37   18   36 1   
    38   18   37 1   
    39   19   38 1   
    40   19   39 1   
    41   19   40 1   
@<TRIPOS>SUBSTRUCTURE
     1 UNK         1 TEMP              0 ****  ****    0 ROOT
