#	Name: UNK
#	Creating user name:	iorga
#	Creation time:	10. 07. 2020 09:45

#	Modifying user name:	iorga
#	Modification time:	10. 07. 2020 09:45

#	Program:	corina 4.2.0 0026  27.09.2018

@<TRIPOS>MOLECULE
UNK
  33   33    0    0    0
SMALL
NO_CHARGES


@<TRIPOS>ATOM
   1 C1             2.4399    10.4528    -2.7545 C.3     
   2 N2             1.2802    10.2149    -1.8915 N.am    
   3 C3             1.3880    10.4242    -0.4455 C.3     
   4 S4            -0.1524     9.7093    -2.5505 S.o2    
   5 O5            -0.1351    10.1193    -3.9109 O.2     
   6 O6            -1.1713    10.0911    -1.6366 O.2     
   7 N7            -0.1300     8.0535    -2.5607 N.am    
   8 C8            -0.1105     7.3726    -1.3978 C.2     
   9 O9            -0.1095     7.9725    -0.3438 O.2     
  10 C10           -0.0901     5.8658    -1.4071 C.3     
  11 C11           -0.0705     5.3471     0.0321 C.3     
  12 C12           -0.0501     3.8402     0.0228 C.ar    
  13 C13            1.1563     3.1654     0.0081 C.ar    
  14 C14            1.1750     1.7832     0.0004 C.ar    
  15 C15           -0.0126     1.0758     0.0080 C.ar    
  16 C16           -1.2190     1.7506     0.0173 C.ar    
  17 C17           -1.2377     3.1328     0.0294 C.ar    
  18 H18            2.4374    11.4903    -3.0886 H       
  19 H19            3.3549    10.2529    -2.1969 H       
  20 H20            2.3903     9.7923    -3.6201 H       
  21 H21            0.4317    10.1987     0.0265 H       
  22 H22            2.1574     9.7675    -0.0397 H       
  23 H23            1.6549    11.4623    -0.2476 H       
  24 H24           -0.1308     7.5737    -3.4037 H       
  25 H25            0.8001     5.5177    -1.9309 H       
  26 H26           -0.9796     5.4935    -1.9154 H       
  27 H27           -0.9608     5.6951     0.5560 H       
  28 H28            0.8190     5.7193     0.5404 H       
  29 H29            2.0842     3.7181     0.0029 H       
  30 H30            2.1175     1.2560    -0.0111 H       
  31 H31            0.0021    -0.0041     0.0020 H       
  32 H32           -2.1469     1.1980     0.0188 H       
  33 H33           -2.1802     3.6600     0.0413 H       
@<TRIPOS>BOND
   1    1    2 1
   2    1   18 1
   3    1   19 1
   4    1   20 1
   5    2    3 1
   6    2    4 am
   7    3   21 1
   8    3   22 1
   9    3   23 1
  10    4    5 2
  11    4    6 2
  12    4    7 am
  13    7    8 am
  14    7   24 1
  15    8    9 2
  16    8   10 1
  17   10   11 1
  18   10   25 1
  19   10   26 1
  20   11   12 1
  21   11   27 1
  22   11   28 1
  23   12   17 ar
  24   12   13 ar
  25   13   14 ar
  26   13   29 1
  27   14   15 ar
  28   14   30 1
  29   15   16 ar
  30   15   31 1
  31   16   17 ar
  32   16   32 1
  33   17   33 1

#	End of record

