@<TRIPOS>MOLECULE
UNK
   36    37     1     0     0
SMALL
bcc


@<TRIPOS>ATOM
      1 C1          1.1660    0.0870   -2.7900 c3        1 UNK     -0.372300
      2 S2         -0.3340   -0.4110   -1.9000 s6        1 UNK      1.473900
      3 N3         -0.0570    0.0470   -0.3340 n3        1 UNK     -0.908100
      4 C4          0.1350    1.4630   -0.0070 cy        1 UNK      0.321200
      5 C5         -0.3700    1.8320    1.3890 cy        1 UNK     -0.336600
      6 S6         -0.7940    3.4930    0.7910 s6        1 UNK      1.335000
      7 C7         -0.9260    2.3730   -0.6300 cy        1 UNK     -0.336600
      8 O8          0.3350    4.3520    0.7110 o         1 UNK     -0.638300
      9 O9         -2.0600    3.9410    1.2570 o         1 UNK     -0.638300
     10 C10         1.5650    1.9360   -0.2740 c3        1 UNK     -0.093400
     11 C11         2.5490    1.0340    0.4730 c3        1 UNK     -0.031100
     12 C12         3.9600    1.4270    0.1180 ca        1 UNK     -0.089300
     13 C13         4.5950    0.8300   -0.9550 ca        1 UNK     -0.126000
     14 C14         5.8870    1.1940   -1.2830 ca        1 UNK     -0.125000
     15 C15         6.5490    2.1470   -0.5320 ca        1 UNK     -0.127000
     16 C16         5.9160    2.7410    0.5440 ca        1 UNK     -0.125000
     17 C17         4.6220    2.3810    0.8690 ca        1 UNK     -0.126000
     18 O18        -0.4300   -1.8270   -1.8390 o         1 UNK     -0.650300
     19 O19        -1.4410    0.3820   -2.3070 o         1 UNK     -0.650300
     20 H20         2.0290   -0.4250   -2.3630 h1        1 UNK      0.117367
     21 H21         1.0700   -0.1800   -3.8430 h1        1 UNK      0.117367
     22 H22         1.3020    1.1650   -2.6990 h1        1 UNK      0.117367
     23 H23        -0.0210   -0.6210    0.3680 hn        1 UNK      0.457800
     24 H24        -1.2400    1.2530    1.6970 h1        1 UNK      0.137700
     25 H25         0.4170    1.8360    2.1430 h1        1 UNK      0.137700
     26 H26        -0.6040    2.8290   -1.5660 h1        1 UNK      0.137700
     27 H27        -1.9040    1.8980   -0.7120 h1        1 UNK      0.137700
     28 H28         1.7700    1.8890   -1.3440 hc        1 UNK      0.060700
     29 H29         1.6790    2.9640    0.0720 hc        1 UNK      0.060700
     30 H30         2.4000    1.1460    1.5470 hc        1 UNK      0.049200
     31 H31         2.3790   -0.0040    0.1880 hc        1 UNK      0.049200
     32 H32         4.0790    0.0820   -1.5390 ha        1 UNK      0.130500
     33 H33         6.3820    0.7300   -2.1240 ha        1 UNK      0.134500
     34 H34         7.5600    2.4280   -0.7860 ha        1 UNK      0.135000
     35 H35         6.4330    3.4850    1.1310 ha        1 UNK      0.134500
     36 H36         4.1280    2.8440    1.7110 ha        1 UNK      0.130500
@<TRIPOS>BOND
     1    1    2 1   
     2    1   20 1   
     3    1   21 1   
     4    1   22 1   
     5    2    3 1   
     6    2   18 2   
     7    2   19 2   
     8    3    4 1   
     9    3   23 1   
    10    4    5 1   
    11    4    7 1   
    12    4   10 1   
    13    5    6 1   
    14    5   24 1   
    15    5   25 1   
    16    6    7 1   
    17    6    8 2   
    18    6    9 2   
    19    7   26 1   
    20    7   27 1   
    21   10   11 1   
    22   10   28 1   
    23   10   29 1   
    24   11   12 1   
    25   11   30 1   
    26   11   31 1   
    27   12   13 ar  
    28   12   17 ar  
    29   13   14 ar  
    30   13   32 1   
    31   14   15 ar  
    32   14   33 1   
    33   15   16 ar  
    34   15   34 1   
    35   16   17 ar  
    36   16   35 1   
    37   17   36 1   
@<TRIPOS>SUBSTRUCTURE
     1 UNK         1 TEMP              0 ****  ****    0 ROOT
