@<TRIPOS>MOLECULE
UNK
   41    43     1     0     0
SMALL
bcc


@<TRIPOS>ATOM
      1 O1         -1.3940    6.4190    0.4770 o         1 UNK     -0.652800
      2 S2         -0.1570    5.8350    0.0910 sy        1 UNK      1.516200
      3 N3          0.0290    6.1590   -1.5220 n3        1 UNK     -0.900100
      4 C4         -1.0980    5.9800   -2.4410 cy        1 UNK      0.271200
      5 C5         -2.4110    6.5510   -1.9000 cy        1 UNK     -0.027300
      6 S6         -2.6680    5.0380   -0.9330 ss        1 UNK     -0.329200
      7 C7         -1.6960    4.5720   -2.3930 cy        1 UNK     -0.027300
      8 C8         -0.7770    6.4490   -3.8610 c3        1 UNK     -0.082400
      9 C9         -0.0760    7.8070   -3.8030 c3        1 UNK     -0.037100
     10 C10         0.2410    8.2690   -5.2020 ca        1 UNK     -0.085300
     11 C11         1.4500    7.9350   -5.7830 ca        1 UNK     -0.126500
     12 C12         1.7390    8.3550   -7.0680 ca        1 UNK     -0.126500
     13 C13         0.8230    9.1170   -7.7690 ca        1 UNK     -0.129000
     14 C14        -0.3840    9.4550   -7.1860 ca        1 UNK     -0.126500
     15 C15        -0.6750    9.0310   -5.9030 ca        1 UNK     -0.126500
     16 C16        -0.3590    4.0920    0.2530 ca        1 UNK     -0.393500
     17 C17         0.6140    3.2360   -0.2280 ca        1 UNK     -0.014000
     18 C18         0.4570    1.8690   -0.1000 ca        1 UNK     -0.159000
     19 C19        -0.6730    1.3570    0.5100 ca        1 UNK     -0.064000
     20 C20        -1.6490    2.2130    0.9860 ca        1 UNK     -0.159000
     21 C21        -1.4890    3.5810    0.8620 ca        1 UNK     -0.014000
     22 O22         1.0810    6.1550    0.7100 o         1 UNK     -0.652800
     23 H23         0.8850    6.4670   -1.8600 hn        1 UNK      0.447800
     24 H24        -2.2700    7.4370   -1.2800 h1        1 UNK      0.090700
     25 H25        -3.1650    6.6990   -2.6740 h1        1 UNK      0.090700
     26 H26        -2.3120    4.3380   -3.2610 h1        1 UNK      0.090700
     27 H27        -0.9560    3.7990   -2.1850 h1        1 UNK      0.090700
     28 H28        -0.1230    5.7230   -4.3440 hc        1 UNK      0.061700
     29 H29        -1.7010    6.5410   -4.4310 hc        1 UNK      0.061700
     30 H30        -0.7300    8.5330   -3.3200 hc        1 UNK      0.054200
     31 H31         0.8490    7.7150   -3.2330 hc        1 UNK      0.054200
     32 H32         2.1680    7.3440   -5.2340 ha        1 UNK      0.131500
     33 H33         2.6820    8.0910   -7.5230 ha        1 UNK      0.132500
     34 H34         1.0500    9.4480   -8.7710 ha        1 UNK      0.133000
     35 H35        -1.1000   10.0500   -7.7330 ha        1 UNK      0.132500
     36 H36        -1.6180    9.2950   -5.4480 ha        1 UNK      0.131500
     37 H37         1.4980    3.6360   -0.7040 ha        1 UNK      0.158000
     38 H38         1.2170    1.2000   -0.4760 ha        1 UNK      0.143500
     39 H39        -0.7960    0.2890    0.6100 ha        1 UNK      0.138000
     40 H40        -2.5340    1.8140    1.4590 ha        1 UNK      0.143500
     41 H41        -2.2500    4.2490    1.2380 ha        1 UNK      0.158000
@<TRIPOS>BOND
     1    1    2 2   
     2    2    3 1   
     3    2   16 1   
     4    2   22 2   
     5    3    4 1   
     6    3   23 1   
     7    4    5 1   
     8    4    7 1   
     9    4    8 1   
    10    5    6 1   
    11    5   24 1   
    12    5   25 1   
    13    6    7 1   
    14    7   26 1   
    15    7   27 1   
    16    8    9 1   
    17    8   28 1   
    18    8   29 1   
    19    9   10 1   
    20    9   30 1   
    21    9   31 1   
    22   10   11 ar  
    23   10   15 ar  
    24   11   12 ar  
    25   11   32 1   
    26   12   13 ar  
    27   12   33 1   
    28   13   14 ar  
    29   13   34 1   
    30   14   15 ar  
    31   14   35 1   
    32   15   36 1   
    33   16   17 ar  
    34   16   21 ar  
    35   17   18 ar  
    36   17   37 1   
    37   18   19 ar  
    38   18   38 1   
    39   19   20 ar  
    40   19   39 1   
    41   20   21 ar  
    42   20   40 1   
    43   21   41 1   
@<TRIPOS>SUBSTRUCTURE
     1 UNK         1 TEMP              0 ****  ****    0 ROOT
