@<TRIPOS>MOLECULE
UNK
   34    35     1     0     0
SMALL
bcc


@<TRIPOS>ATOM
      1 C1          0.6900   -0.3710    0.4860 c3        1 UNK     -0.385300
      2 S2          0.0780    1.2880    0.0800 s6        1 UNK      1.470900
      3 N3         -0.1960    1.9980    1.5510 n3        1 UNK     -0.908100
      4 C4         -1.2430    1.4770    2.4320 cy        1 UNK      0.269200
      5 C5         -1.1880   -0.0430    2.5990 cy        1 UNK     -0.030800
      6 S6         -2.0890   -0.2440    1.0380 ss        1 UNK     -0.320200
      7 C7         -2.6020    1.3480    1.7410 cy        1 UNK     -0.030800
      8 C8         -1.3150    2.2280    3.7640 c3        1 UNK     -0.083400
      9 C9          0.0980    2.4150    4.3200 c3        1 UNK     -0.039100
     10 C10         0.0280    3.1540    5.6320 ca        1 UNK     -0.086300
     11 C11         0.0930    4.5340    5.6510 ca        1 UNK     -0.125500
     12 C12         0.0230    5.2130    6.8540 ca        1 UNK     -0.125500
     13 C13        -0.1000    4.5100    8.0380 ca        1 UNK     -0.128000
     14 C14        -0.1600    3.1290    8.0180 ca        1 UNK     -0.125500
     15 C15        -0.0960    2.4510    6.8150 ca        1 UNK     -0.125500
     16 O16         1.1110    2.0720   -0.5010 o         1 UNK     -0.654300
     17 O17        -1.2090    1.2120   -0.5180 o         1 UNK     -0.654300
     18 H18         1.4220   -0.3010    1.2910 h1        1 UNK      0.123367
     19 H19        -0.1430   -0.9970    0.8050 h1        1 UNK      0.123367
     20 H20         1.1590   -0.8110   -0.3940 h1        1 UNK      0.123367
     21 H21         0.3380    2.7600    1.8280 hn        1 UNK      0.453800
     22 H22        -0.1740   -0.4410    2.5630 h1        1 UNK      0.090450
     23 H23        -1.7450   -0.3990    3.4650 h1        1 UNK      0.090450
     24 H24        -3.4330    1.2600    2.4410 h1        1 UNK      0.090450
     25 H25        -2.7730    2.1150    0.9850 h1        1 UNK      0.090450
     26 H26        -1.7750    3.2030    3.6070 hc        1 UNK      0.067200
     27 H27        -1.9110    1.6540    4.4730 hc        1 UNK      0.067200
     28 H28         0.5590    1.4390    4.4770 hc        1 UNK      0.049700
     29 H29         0.6950    2.9880    3.6110 hc        1 UNK      0.049700
     30 H30         0.1940    5.0830    4.7270 ha        1 UNK      0.131500
     31 H31         0.0710    6.2910    6.8690 ha        1 UNK      0.134000
     32 H32        -0.1500    5.0390    8.9770 ha        1 UNK      0.134000
     33 H33        -0.2570    2.5790    8.9430 ha        1 UNK      0.134000
     34 H34        -0.1420    1.3720    6.8010 ha        1 UNK      0.131500
@<TRIPOS>BOND
     1    1    2 1   
     2    1   18 1   
     3    1   19 1   
     4    1   20 1   
     5    2    3 1   
     6    2   16 2   
     7    2   17 2   
     8    3    4 1   
     9    3   21 1   
    10    4    5 1   
    11    4    7 1   
    12    4    8 1   
    13    5    6 1   
    14    5   22 1   
    15    5   23 1   
    16    6    7 1   
    17    7   24 1   
    18    7   25 1   
    19    8    9 1   
    20    8   26 1   
    21    8   27 1   
    22    9   10 1   
    23    9   28 1   
    24    9   29 1   
    25   10   11 ar  
    26   10   15 ar  
    27   11   12 ar  
    28   11   30 1   
    29   12   13 ar  
    30   12   31 1   
    31   13   14 ar  
    32   13   32 1   
    33   14   15 ar  
    34   14   33 1   
    35   15   34 1   
@<TRIPOS>SUBSTRUCTURE
     1 UNK         1 TEMP              0 ****  ****    0 ROOT
