#	Name: SM42
#	Creating user name:	iorga
#	Creation time:	09. 07. 2020 11:40

#	Modifying user name:	iorga
#	Modification time:	09. 07. 2020 11:40

#	Program:	corina 4.2.0 0026  27.09.2018

@<TRIPOS>MOLECULE
UNK 
  33   35    0    0    0
UNK L
NO_CHARGES


@<TRIPOS>ATOM
   1 O1             1.1325    -2.1978     0.0147 O.2     
   2 S2             1.4473    -0.8125    -0.0155 S.o2    
   3 N3             0.0021    -0.0041     0.0020 N.am    
   4 C4            -0.0168     1.3873     0.0097 C.2     
   5 N5             1.0201     2.1855     0.0041 N.2     
   6 O6             0.6910     3.3487     0.0135 O.3     
   7 C7            -0.6473     3.4859     0.0270 C.2     
   8 C8            -1.4084     4.7536     0.0406 C.ar    
   9 C9            -2.8037     4.7332     0.0476 C.ar    
  10 C10           -3.5079     5.9195     0.0662 C.ar    
  11 C11           -2.8337     7.1276     0.0668 C.ar    
  12 C12           -1.4505     7.1548     0.0537 C.ar    
  13 C13           -0.7344     5.9756     0.0408 C.ar    
  14 C14           -1.1631     2.2211     0.0189 C.2     
  15 C15            2.2636    -0.4545     1.5044 C.ar    
  16 C16            3.1132     0.6323     1.5934 C.ar    
  17 C17            3.7499     0.9159     2.7872 C.ar    
  18 C18            3.5451     0.1067     3.8890 C.ar    
  19 C19            2.6995    -0.9831     3.7986 C.ar    
  20 C20            2.0587    -1.2637     2.6063 C.ar    
  21 O21            2.2287    -0.2152    -1.0411 O.2     
  22 H22           -0.8313    -0.5004     0.0069 H       
  23 H23           -3.3312     3.7908     0.0430 H       
  24 H24           -4.5877     5.9051     0.0765 H       
  25 H25           -3.3895     8.0535     0.0772 H       
  26 H26           -0.9301     8.1012     0.0538 H       
  27 H27            0.3453     5.9981     0.0313 H       
  28 H28           -2.2018     1.9253     0.0212 H       
  29 H29            3.2767     1.2619     0.7313 H       
  30 H30            4.4108     1.7671     2.8577 H       
  31 H31            4.0459     0.3257     4.8205 H       
  32 H32            2.5397    -1.6156     4.6593 H       
  33 H33            1.3983    -2.1154     2.5355 H       
@<TRIPOS>BOND
   1    1    2 2
   2    2    3 am
   3    2   15 1
   4    2   21 2
   5    3    4 1
   6    3   22 1
   7    4   14 1
   8    4    5 2
   9    5    6 1
  10    6    7 1
  11    7    8 1
  12    7   14 2
  13    8   13 ar
  14    8    9 ar
  15    9   10 ar
  16    9   23 1
  17   10   11 ar
  18   10   24 1
  19   11   12 ar
  20   11   25 1
  21   12   13 ar
  22   12   26 1
  23   13   27 1
  24   14   28 1
  25   15   20 ar
  26   15   16 ar
  27   16   17 ar
  28   16   29 1
  29   17   18 ar
  30   17   30 1
  31   18   19 ar
  32   18   31 1
  33   19   20 ar
  34   19   32 1
  35   20   33 1

#	End of record

