@<TRIPOS>MOLECULE
UNK
   28    28     1     0     0
SMALL
bcc


@<TRIPOS>ATOM
      1 O1         -1.3540    8.1580   -0.8920 o         1 UNK     -0.640800
      2 S2         -0.1150    7.6800   -1.3960 s6        1 UNK      1.450600
      3 C3         -0.0900    5.8660   -1.4070 c3        1 UNK     -0.328600
      4 C4         -0.0700    5.3470    0.0320 c3        1 UNK     -0.009100
      5 C5         -0.0500    3.8400    0.0230 ca        1 UNK     -0.081300
      6 C6          1.1560    3.1650    0.0080 ca        1 UNK     -0.123000
      7 C7          1.1750    1.7830    0.0000 ca        1 UNK     -0.128500
      8 C8         -0.0130    1.0760    0.0080 ca        1 UNK     -0.128000
      9 C9         -1.2190    1.7510    0.0170 ca        1 UNK     -0.128500
     10 C10        -1.2380    3.1330    0.0290 ca        1 UNK     -0.123000
     11 N11        -0.1340    8.1020   -2.9970 n         1 UNK     -0.683300
     12 C12        -1.1950    7.7830   -3.7650 c         1 UNK      0.691100
     13 C13        -1.2130    8.1680   -5.2220 c3        1 UNK     -0.176100
     14 O14        -2.1340    7.1860   -3.2840 o         1 UNK     -0.580100
     15 O15         1.1200    8.1920   -0.9130 o         1 UNK     -0.640800
     16 H16         0.8000    5.5180   -1.9310 h1        1 UNK      0.131200
     17 H17        -0.9800    5.4930   -1.9150 h1        1 UNK      0.131200
     18 H18        -0.9610    5.6950    0.5560 hc        1 UNK      0.067700
     19 H19         0.8190    5.7190    0.5400 hc        1 UNK      0.067700
     20 H20         2.0840    3.7180    0.0030 ha        1 UNK      0.135000
     21 H21         2.1180    1.2560   -0.0110 ha        1 UNK      0.132500
     22 H22         0.0020   -0.0040    0.0020 ha        1 UNK      0.132000
     23 H23        -2.1470    1.1980    0.0190 ha        1 UNK      0.132500
     24 H24        -2.1800    3.6600    0.0410 ha        1 UNK      0.135000
     25 H25         0.6170    8.5800   -3.3820 hn        1 UNK      0.337500
     26 H26        -0.3690    7.7030   -5.7310 hc        1 UNK      0.075700
     27 H27        -2.1440    7.8280   -5.6760 hc        1 UNK      0.075700
     28 H28        -1.1390    9.2520   -5.3130 hc        1 UNK      0.075700
@<TRIPOS>BOND
     1    1    2 2   
     2    2    3 1   
     3    2   11 1   
     4    2   15 2   
     5    3    4 1   
     6    3   16 1   
     7    3   17 1   
     8    4    5 1   
     9    4   18 1   
    10    4   19 1   
    11    5    6 ar  
    12    5   10 ar  
    13    6    7 ar  
    14    6   20 1   
    15    7    8 ar  
    16    7   21 1   
    17    8    9 ar  
    18    8   22 1   
    19    9   10 ar  
    20    9   23 1   
    21   10   24 1   
    22   11   12 1   
    23   11   25 1   
    24   12   13 1   
    25   12   14 2   
    26   13   26 1   
    27   13   27 1   
    28   13   28 1   
@<TRIPOS>SUBSTRUCTURE
     1 UNK         1 TEMP              0 ****  ****    0 ROOT
