@<TRIPOS>MOLECULE
UNK
   43    45     1     0     0
SMALL
bcc


@<TRIPOS>ATOM
      1 O1          0.5370    7.7980   -3.4610 o         1 UNK     -0.650300
      2 S2          0.4480    7.8090   -2.0430 sy        1 UNK      1.521200
      3 N3         -0.0320    6.2900   -1.5930 n3        1 UNK     -0.901100
      4 C4         -1.1750    5.6560   -2.2560 cy        1 UNK      0.326200
      5 C5         -1.0830    4.1290   -2.2850 cy        1 UNK     -0.339100
      6 S6         -1.9680    4.1100   -3.8690 s6        1 UNK      1.335000
      7 C7         -1.0780    5.6880   -3.7830 cy        1 UNK     -0.339100
      8 O8         -3.3720    4.2620   -3.7160 o         1 UNK     -0.639800
      9 O9         -1.3980    3.2080   -4.8090 o         1 UNK     -0.639800
     10 C10        -2.5160    6.1690   -1.7280 c3        1 UNK     -0.093400
     11 C11        -2.6390    5.8350   -0.2400 c3        1 UNK     -0.031100
     12 C12        -4.0110    6.2220    0.2500 ca        1 UNK     -0.085300
     13 C13        -4.2310    7.4880    0.7580 ca        1 UNK     -0.126000
     14 C14        -5.4910    7.8450    1.2030 ca        1 UNK     -0.126500
     15 C15        -6.5270    6.9320    1.1500 ca        1 UNK     -0.128000
     16 C16        -6.3050    5.6630    0.6460 ca        1 UNK     -0.126500
     17 C17        -5.0470    5.3090    0.1970 ca        1 UNK     -0.126000
     18 C18        -0.8620    8.9130   -1.6350 ca        1 UNK     -0.389500
     19 C19        -0.9680    9.4160   -0.3520 ca        1 UNK     -0.017000
     20 C20        -1.9970   10.2820   -0.0310 ca        1 UNK     -0.156000
     21 C21        -2.9200   10.6450   -0.9940 ca        1 UNK     -0.062000
     22 C22        -2.8170   10.1380   -2.2760 ca        1 UNK     -0.156000
     23 C23        -1.7860    9.2760   -2.5980 ca        1 UNK     -0.017000
     24 O24         1.5390    8.1510   -1.1990 o         1 UNK     -0.650300
     25 H25         0.4420    5.8190   -0.8900 hn        1 UNK      0.453800
     26 H26        -0.0590    3.7630   -2.3610 h1        1 UNK      0.136450
     27 H27        -1.6380    3.6510   -1.4780 h1        1 UNK      0.136450
     28 H28        -1.6290    6.5160   -4.2300 h1        1 UNK      0.136450
     29 H29        -0.0530    5.6230   -4.1490 h1        1 UNK      0.136450
     30 H30        -2.5720    7.2490   -1.8640 hc        1 UNK      0.061700
     31 H31        -3.3290    5.6910   -2.2760 hc        1 UNK      0.061700
     32 H32        -2.4900    4.7650   -0.0940 hc        1 UNK      0.049200
     33 H33        -1.8840    6.3870    0.3200 hc        1 UNK      0.049200
     34 H34        -3.4210    8.2010    0.8040 ha        1 UNK      0.131000
     35 H35        -5.6640    8.8360    1.5970 ha        1 UNK      0.133500
     36 H36        -7.5100    7.2090    1.5010 ha        1 UNK      0.133000
     37 H37        -7.1150    4.9500    0.6050 ha        1 UNK      0.133500
     38 H38        -4.8740    4.3180   -0.1960 ha        1 UNK      0.131000
     39 H39        -0.2470    9.1330    0.4010 ha        1 UNK      0.152500
     40 H40        -2.0790   10.6750    0.9710 ha        1 UNK      0.143500
     41 H41        -3.7240   11.3220   -0.7440 ha        1 UNK      0.140000
     42 H42        -3.5410   10.4180   -3.0270 ha        1 UNK      0.143500
     43 H43        -1.7030    8.8830   -3.6000 ha        1 UNK      0.152500
@<TRIPOS>BOND
     1    1    2 2   
     2    2    3 1   
     3    2   18 1   
     4    2   24 2   
     5    3    4 1   
     6    3   25 1   
     7    4    5 1   
     8    4    7 1   
     9    4   10 1   
    10    5    6 1   
    11    5   26 1   
    12    5   27 1   
    13    6    7 1   
    14    6    8 2   
    15    6    9 2   
    16    7   28 1   
    17    7   29 1   
    18   10   11 1   
    19   10   30 1   
    20   10   31 1   
    21   11   12 1   
    22   11   32 1   
    23   11   33 1   
    24   12   13 ar  
    25   12   17 ar  
    26   13   14 ar  
    27   13   34 1   
    28   14   15 ar  
    29   14   35 1   
    30   15   16 ar  
    31   15   36 1   
    32   16   17 ar  
    33   16   37 1   
    34   17   38 1   
    35   18   19 ar  
    36   18   23 ar  
    37   19   20 ar  
    38   19   39 1   
    39   20   21 ar  
    40   20   40 1   
    41   21   22 ar  
    42   21   41 1   
    43   22   23 ar  
    44   22   42 1   
    45   23   43 1   
@<TRIPOS>SUBSTRUCTURE
     1 UNK         1 TEMP              0 ****  ****    0 ROOT
