#	Name: SM32
#	Creating user name:	iorga
#	Creation time:	09. 07. 2020 11:40

#	Modifying user name:	iorga
#	Modification time:	09. 07. 2020 11:40

#	Program:	corina 4.2.0 0026  27.09.2018

@<TRIPOS>MOLECULE
UNK 
  34   35    0    0    0
UNK L
NO_CHARGES


@<TRIPOS>ATOM
   1 C1             0.6902    -0.3709     0.4861 C.3     
   2 S2             0.0783     1.2878     0.0801 S.o2    
   3 N3            -0.1956     1.9985     1.5506 N.am    
   4 C4            -1.2432     1.4773     2.4322 C.3     
   5 C5            -1.1876    -0.0429     2.5995 C.3     
   6 S6            -2.0894    -0.2441     1.0381 S.3     
   7 C7            -2.6023     1.3480     1.7407 C.3     
   8 C8            -1.3146     2.2277     3.7637 C.3     
   9 C9             0.0982     2.4146     4.3203 C.3     
  10 C10            0.0279     3.1537     5.6317 C.ar    
  11 C11            0.0929     4.5344     5.6512 C.ar    
  12 C12            0.0235     5.2126     6.8538 C.ar    
  13 C13           -0.1005     4.5096     8.0376 C.ar    
  14 C14           -0.1602     3.1287     8.0184 C.ar    
  15 C15           -0.0961     2.4507     6.8155 C.ar    
  16 O16            1.1112     2.0719    -0.5010 O.2     
  17 O17           -1.2086     1.2121    -0.5177 O.2     
  18 H18            1.4220    -0.3014     1.2909 H       
  19 H19           -0.1427    -0.9974     0.8054 H       
  20 H20            1.1590    -0.8108    -0.3942 H       
  21 H21            0.3375     2.7598     1.8282 H       
  22 H22           -0.1736    -0.4412     2.5631 H       
  23 H23           -1.7453    -0.3994     3.4654 H       
  24 H24           -3.4328     1.2596     2.4412 H       
  25 H25           -2.7733     2.1147     0.9850 H       
  26 H26           -1.7752     3.2031     3.6067 H       
  27 H27           -1.9115     1.6539     4.4726 H       
  28 H28            0.5589     1.4392     4.4772 H       
  29 H29            0.6951     2.9884     3.6113 H       
  30 H30            0.1941     5.0834     4.7267 H       
  31 H31            0.0705     6.2915     6.8688 H       
  32 H32           -0.1502     5.0393     8.9775 H       
  33 H33           -0.2567     2.5795     8.9433 H       
  34 H34           -0.1424     1.3718     6.8005 H       
@<TRIPOS>BOND
   1    1    2 1
   2    1   18 1
   3    1   19 1
   4    1   20 1
   5    2    3 am
   6    2   16 2
   7    2   17 2
   8    3    4 1
   9    3   21 1
  10    4    7 1
  11    4    5 1
  12    4    8 1
  13    5    6 1
  14    5   22 1
  15    5   23 1
  16    6    7 1
  17    7   24 1
  18    7   25 1
  19    8    9 1
  20    8   26 1
  21    8   27 1
  22    9   10 1
  23    9   28 1
  24    9   29 1
  25   10   15 ar
  26   10   11 ar
  27   11   12 ar
  28   11   30 1
  29   12   13 ar
  30   12   31 1
  31   13   14 ar
  32   13   32 1
  33   14   15 ar
  34   14   33 1
  35   15   34 1

#	End of record

