#	Name: SM40
#	Creating user name:	iorga
#	Creation time:	09. 07. 2020 11:40

#	Modifying user name:	iorga
#	Modification time:	09. 07. 2020 11:40

#	Program:	corina 4.2.0 0026  27.09.2018

@<TRIPOS>MOLECULE
UNK 
  41   42    0    0    0
UNK L
NO_CHARGES


@<TRIPOS>ATOM
   1 O1            -0.9745    -1.8878    -1.8995 O.2     
   2 S2            -0.6777    -0.4981    -1.8950 S.o2    
   3 N3            -0.1691    -0.1336    -0.3618 N.am    
   4 C4             0.3322     1.2086    -0.0561 C.3     
   5 C5             0.0297     1.6519     1.3772 C.3     
   6 S6            -0.0967     3.3726     0.8137 S.o2    
   7 C7            -0.5703     2.3239    -0.5889 C.3     
   8 O8             1.1725     3.9867     0.6369 O.2     
   9 O9            -1.2019     4.0602     1.3837 O.2     
  10 C10            1.8015     1.3871    -0.4435 C.3     
  11 C11            2.6429     0.3039     0.2345 C.3     
  12 C12            4.1030     0.5565    -0.0402 C.ar    
  13 C13            4.7045    -0.0046    -1.1511 C.ar    
  14 C14            6.0426     0.2311    -1.4057 C.ar    
  15 C15            6.7817     1.0194    -0.5437 C.ar    
  16 C16            6.1815     1.5763     0.5701 C.ar    
  17 C17            4.8421     1.3448     0.8218 C.ar    
  18 N18            0.6198    -0.2937    -2.9035 N.am    
  19 C19            1.6299    -1.3483    -3.0203 C.3     
  20 C20            0.7574     0.9417    -3.6788 C.3     
  21 O21           -1.6243     0.4999    -2.2517 O.2     
  22 H22           -0.2031    -0.8087     0.3339 H       
  23 H23           -0.9113     1.2557     1.7587 H       
  24 H24            0.8612     1.4848     2.0619 H       
  25 H25           -0.2411     2.7192    -1.5499 H       
  26 H26           -1.6273     2.0574    -0.5870 H       
  27 H27            1.9047     1.3033    -1.5254 H       
  28 H28            2.1456     2.3696    -0.1207 H       
  29 H29            2.4663     0.3265     1.3098 H       
  30 H30            2.3629    -0.6732    -0.1592 H       
  31 H31            4.1280    -0.6241    -1.8223 H       
  32 H32            6.5116    -0.2043    -2.2757 H       
  33 H33            7.8282     1.1999    -0.7401 H       
  34 H34            6.7591     2.1919     1.2438 H       
  35 H35            4.3732     1.7796     1.6922 H       
  36 H36            1.3486    -2.0340    -3.8196 H       
  37 H37            2.5973    -0.9010    -3.2490 H       
  38 H38            1.6955    -1.8945    -2.0793 H       
  39 H39            1.3822     1.6469    -3.1306 H       
  40 H40            1.2198     0.7177    -4.6401 H       
  41 H41           -0.2272     1.3796    -3.8424 H       
@<TRIPOS>BOND
   1    1    2 2
   2    2    3 am
   3    2   18 am
   4    2   21 2
   5    3    4 1
   6    3   22 1
   7    4    7 1
   8    4    5 1
   9    4   10 1
  10    5    6 1
  11    5   23 1
  12    5   24 1
  13    6    7 1
  14    6    8 2
  15    6    9 2
  16    7   25 1
  17    7   26 1
  18   10   11 1
  19   10   27 1
  20   10   28 1
  21   11   12 1
  22   11   29 1
  23   11   30 1
  24   12   17 ar
  25   12   13 ar
  26   13   14 ar
  27   13   31 1
  28   14   15 ar
  29   14   32 1
  30   15   16 ar
  31   15   33 1
  32   16   17 ar
  33   16   34 1
  34   17   35 1
  35   18   19 1
  36   18   20 1
  37   19   36 1
  38   19   37 1
  39   19   38 1
  40   20   39 1
  41   20   40 1
  42   20   41 1

#	End of record

