@<TRIPOS>MOLECULE
UNK
   29    30     1     0     0
SMALL
bcc


@<TRIPOS>ATOM
      1 O1         -2.3280   -0.1730    0.0240 o         1 UNK     -0.579100
      2 C2         -1.2660   -0.7640    0.0110 c         1 UNK      0.709700
      3 C3          0.0020   -0.0040    0.0020 ca        1 UNK     -0.151600
      4 C4         -0.0170    1.3920    0.0100 ca        1 UNK     -0.085500
      5 C5          1.1700    2.0940    0.0020 ca        1 UNK     -0.137500
      6 C6          2.3780    1.4190   -0.0130 ca        1 UNK     -0.101000
      7 C7          2.4030    0.0360   -0.0210 ca        1 UNK     -0.137500
      8 C8          1.2240   -0.6790   -0.0130 ca        1 UNK     -0.085500
      9 N9         -1.2450   -2.1110    0.0030 n         1 UNK     -0.671300
     10 S10        -2.6650   -2.9620    0.0130 sy        1 UNK      1.513900
     11 C11        -3.4930   -2.6120   -1.5030 ca        1 UNK     -0.402500
     12 C12        -4.3750   -1.5500   -1.5790 ca        1 UNK     -0.005000
     13 C13        -5.0210   -1.2720   -2.7690 ca        1 UNK     -0.161500
     14 C14        -4.7930   -2.0630   -3.8800 ca        1 UNK     -0.059000
     15 C15        -3.9150   -3.1280   -3.8020 ca        1 UNK     -0.161500
     16 C16        -3.2650   -3.4030   -2.6140 ca        1 UNK     -0.005000
     17 O17        -2.3090   -4.3370   -0.0330 o         1 UNK     -0.642300
     18 O18        -3.4630   -2.4000    1.0450 o         1 UNK     -0.642300
     19 H19        -0.9590    1.9200    0.0170 ha        1 UNK      0.147000
     20 H20         1.1570    3.1740    0.0080 ha        1 UNK      0.141000
     21 H21         3.3040    1.9740   -0.0190 ha        1 UNK      0.139000
     22 H22         3.3490   -0.4860   -0.0330 ha        1 UNK      0.141000
     23 H23         1.2450   -1.7590   -0.0200 ha        1 UNK      0.147000
     24 H24        -0.3970   -2.5830   -0.0080 hn        1 UNK      0.337500
     25 H25        -4.5560   -0.9350   -0.7100 ha        1 UNK      0.164500
     26 H26        -5.7070   -0.4400   -2.8300 ha        1 UNK      0.143500
     27 H27        -5.3010   -1.8490   -4.8090 ha        1 UNK      0.137000
     28 H28        -3.7380   -3.7460   -4.6700 ha        1 UNK      0.143500
     29 H29        -2.5800   -4.2350   -2.5530 ha        1 UNK      0.164500
@<TRIPOS>BOND
     1    1    2 2   
     2    2    3 1   
     3    2    9 1   
     4    3    4 ar  
     5    3    8 ar  
     6    4    5 ar  
     7    4   19 1   
     8    5    6 ar  
     9    5   20 1   
    10    6    7 ar  
    11    6   21 1   
    12    7    8 ar  
    13    7   22 1   
    14    8   23 1   
    15    9   10 1   
    16    9   24 1   
    17   10   11 1   
    18   10   17 2   
    19   10   18 2   
    20   11   12 ar  
    21   11   16 ar  
    22   12   13 ar  
    23   12   25 1   
    24   13   14 ar  
    25   13   26 1   
    26   14   15 ar  
    27   14   27 1   
    28   15   16 ar  
    29   15   28 1   
    30   16   29 1   
@<TRIPOS>SUBSTRUCTURE
     1 UNK         1 TEMP              0 ****  ****    0 ROOT
