@<TRIPOS>MOLECULE
UNK
   34    35     1     0     0
SMALL
bcc


@<TRIPOS>ATOM
      1 C1          0.7360    1.5320    2.8910 c3        1 UNK     -0.375300
      2 S2          1.1370   -0.1820    2.4500 s6        1 UNK      1.470900
      3 N3         -0.2040   -0.7260    1.6450 n3        1 UNK     -0.902100
      4 C4         -0.5590   -0.1540    0.3440 cy        1 UNK      0.207200
      5 C5         -0.6880    1.3810    0.3540 cy        1 UNK      0.086400
      6 O6          0.7050    1.3880   -0.0150 os        1 UNK     -0.420600
      7 C7          0.6460    0.0660   -0.5890 cy        1 UNK      0.086400
      8 C8         -1.7360   -0.8680   -0.3240 c3        1 UNK     -0.078400
      9 C9         -1.5680   -2.3810   -0.1690 c3        1 UNK     -0.036100
     10 C10        -2.7270   -3.0840   -0.8270 ca        1 UNK     -0.085300
     11 C11        -3.8650   -3.3740   -0.0970 ca        1 UNK     -0.126000
     12 C12        -4.9300   -4.0150   -0.7020 ca        1 UNK     -0.127000
     13 C13        -4.8530   -4.3760   -2.0340 ca        1 UNK     -0.129000
     14 C14        -3.7130   -4.0910   -2.7630 ca        1 UNK     -0.127000
     15 C15        -2.6510   -3.4450   -2.1600 ca        1 UNK     -0.126000
     16 O16         1.2010   -0.9940    3.6150 o         1 UNK     -0.653800
     17 O17         2.1700   -0.2170    1.4750 o         1 UNK     -0.653800
     18 H18        -0.2320    1.5610    3.3920 h1        1 UNK      0.121033
     19 H19         1.5030    1.9240    3.5590 h1        1 UNK      0.121033
     20 H20         0.6960    2.1390    1.9870 h1        1 UNK      0.121033
     21 H21        -0.7530   -1.4240    2.0350 hn        1 UNK      0.452800
     22 H22        -1.3510    1.7730   -0.4170 h1        1 UNK      0.070700
     23 H23        -0.8850    1.8010    1.3410 h1        1 UNK      0.070700
     24 H24         1.5080   -0.5570   -0.3510 h1        1 UNK      0.070700
     25 H25         0.3910    0.0550   -1.6490 h1        1 UNK      0.070700
     26 H26        -2.6670   -0.5550    0.1490 hc        1 UNK      0.059700
     27 H27        -1.7630   -0.6120   -1.3830 hc        1 UNK      0.059700
     28 H28        -0.6370   -2.6940   -0.6420 hc        1 UNK      0.055700
     29 H29        -1.5420   -2.6370    0.8900 hc        1 UNK      0.055700
     30 H30        -3.9230   -3.0960    0.9450 ha        1 UNK      0.130500
     31 H31        -5.8200   -4.2380   -0.1330 ha        1 UNK      0.132500
     32 H32        -5.6830   -4.8810   -2.5060 ha        1 UNK      0.133000
     33 H33        -3.6530   -4.3730   -3.8040 ha        1 UNK      0.132500
     34 H34        -1.7600   -3.2230   -2.7290 ha        1 UNK      0.130500
@<TRIPOS>BOND
     1    1    2 1   
     2    1   18 1   
     3    1   19 1   
     4    1   20 1   
     5    2    3 1   
     6    2   16 2   
     7    2   17 2   
     8    3    4 1   
     9    3   21 1   
    10    4    5 1   
    11    4    7 1   
    12    4    8 1   
    13    5    6 1   
    14    5   22 1   
    15    5   23 1   
    16    6    7 1   
    17    7   24 1   
    18    7   25 1   
    19    8    9 1   
    20    8   26 1   
    21    8   27 1   
    22    9   10 1   
    23    9   28 1   
    24    9   29 1   
    25   10   11 ar  
    26   10   15 ar  
    27   11   12 ar  
    28   11   30 1   
    29   12   13 ar  
    30   12   31 1   
    31   13   14 ar  
    32   13   32 1   
    33   14   15 ar  
    34   14   33 1   
    35   15   34 1   
@<TRIPOS>SUBSTRUCTURE
     1 UNK         1 TEMP              0 ****  ****    0 ROOT
