@<TRIPOS>MOLECULE
UNK
   42    44     1     0     0
SMALL
bcc


@<TRIPOS>ATOM
      1 O1          0.6050    1.8000    1.2450 o         1 UNK     -0.651300
      2 S2          1.2790    0.5760    1.5010 sy        1 UNK      1.518200
      3 N3          0.1140   -0.6000    1.5420 n3        1 UNK     -0.904100
      4 C4         -1.0990   -0.4020    2.3400 cy        1 UNK      0.301200
      5 C5         -2.3390   -1.0490    1.7210 cy        1 UNK     -0.101100
      6 S6         -3.3720    0.2670    2.4240 s4        1 UNK      0.240600
      7 O7         -4.1650    0.7600    1.2210 o         1 UNK     -0.478200
      8 C8         -1.7270    0.9800    2.1480 cy        1 UNK     -0.101100
      9 C9         -0.8980   -0.7720    3.8110 c3        1 UNK     -0.089400
     10 C10        -0.1580   -2.1080    3.9050 c3        1 UNK     -0.032100
     11 C11         0.0390   -2.4720    5.3540 ca        1 UNK     -0.082300
     12 C12         1.1800   -2.0640    6.0200 ca        1 UNK     -0.128500
     13 C13         1.3590   -2.3940    7.3500 ca        1 UNK     -0.127500
     14 C14         0.4020   -3.1410    8.0120 ca        1 UNK     -0.129000
     15 C15        -0.7360   -3.5540    7.3440 ca        1 UNK     -0.127500
     16 C16        -0.9170   -3.2190    6.0150 ca        1 UNK     -0.128500
     17 C17         1.9470    0.7050    3.1260 ca        1 UNK     -0.378500
     18 C18         1.3850    1.5800    4.0370 ca        1 UNK     -0.018500
     19 C19         1.9060    1.6780    5.3130 ca        1 UNK     -0.159000
     20 C20         2.9960    0.9090    5.6760 ca        1 UNK     -0.069000
     21 C21         3.5620    0.0380    4.7630 ca        1 UNK     -0.159000
     22 C22         3.0370   -0.0640    3.4880 ca        1 UNK     -0.018500
     23 O23         2.3230    0.0770    0.6760 o         1 UNK     -0.651300
     24 H24         0.2340   -1.4200    1.0380 hn        1 UNK      0.452800
     25 H25        -2.3250   -1.0470    0.6310 h1        1 UNK      0.106450
     26 H26        -2.5600   -2.0340    2.1330 h1        1 UNK      0.106450
     27 H27        -1.4350    1.6950    2.9170 h1        1 UNK      0.106450
     28 H28        -1.5940    1.3750    1.1400 h1        1 UNK      0.106450
     29 H29        -0.3120    0.0040    4.3040 hc        1 UNK      0.054200
     30 H30        -1.8690   -0.8590    4.3000 hc        1 UNK      0.054200
     31 H31        -0.7450   -2.8830    3.4120 hc        1 UNK      0.049700
     32 H32         0.8120   -2.0210    3.4160 hc        1 UNK      0.049700
     33 H33         1.9290   -1.4840    5.5020 ha        1 UNK      0.131500
     34 H34         2.2480   -2.0720    7.8710 ha        1 UNK      0.131500
     35 H35         0.5440   -3.4030    9.0500 ha        1 UNK      0.133000
     36 H36        -1.4830   -4.1380    7.8610 ha        1 UNK      0.131500
     37 H37        -1.8060   -3.5420    5.4940 ha        1 UNK      0.131500
     38 H38         0.5360    2.1840    3.7520 ha        1 UNK      0.153500
     39 H39         1.4650    2.3590    6.0260 ha        1 UNK      0.142500
     40 H40         3.4060    0.9890    6.6720 ha        1 UNK      0.138000
     41 H41         4.4130   -0.5630    5.0460 ha        1 UNK      0.142500
     42 H42         3.4790   -0.7440    2.7750 ha        1 UNK      0.153500
@<TRIPOS>BOND
     1    1    2 2   
     2    2    3 1   
     3    2   17 1   
     4    2   23 2   
     5    3    4 1   
     6    3   24 1   
     7    4    5 1   
     8    4    8 1   
     9    4    9 1   
    10    5    6 1   
    11    5   25 1   
    12    5   26 1   
    13    6    7 2   
    14    6    8 1   
    15    8   27 1   
    16    8   28 1   
    17    9   10 1   
    18    9   29 1   
    19    9   30 1   
    20   10   11 1   
    21   10   31 1   
    22   10   32 1   
    23   11   12 ar  
    24   11   16 ar  
    25   12   13 ar  
    26   12   33 1   
    27   13   14 ar  
    28   13   34 1   
    29   14   15 ar  
    30   14   35 1   
    31   15   16 ar  
    32   15   36 1   
    33   16   37 1   
    34   17   18 ar  
    35   17   22 ar  
    36   18   19 ar  
    37   18   38 1   
    38   19   20 ar  
    39   19   39 1   
    40   20   21 ar  
    41   20   40 1   
    42   21   22 ar  
    43   21   41 1   
    44   22   42 1   
@<TRIPOS>SUBSTRUCTURE
     1 UNK         1 TEMP              0 ****  ****    0 ROOT
