#	Name: UNK
#	Creating user name:	iorga
#	Creation time:	10. 07. 2020 09:46

#	Modifying user name:	iorga
#	Modification time:	10. 07. 2020 09:46

#	Program:	corina 4.2.0 0026  27.09.2018

@<TRIPOS>MOLECULE
UNK
  27   27    0    0    0
SMALL
NO_CHARGES


@<TRIPOS>ATOM
   1 C1             1.4382     9.8552    -2.5075 C.3     
   2 S2            -0.1514     9.2568    -3.1443 S.o2    
   3 O3            -0.1909     9.3580    -4.5612 O.2     
   4 O4            -1.2225     9.7401    -2.3452 O.2     
   5 N5            -0.1267     7.6271    -2.8519 N.am    
   6 C6            -0.1094     7.1701    -1.5840 C.2     
   7 O7            -0.1120     7.9545    -0.6550 O.2     
   8 N8            -0.0893     5.8437    -1.3460 N.am    
   9 C9            -0.0705     5.3471     0.0321 C.3     
  10 C10           -0.0501     3.8402     0.0228 C.ar    
  11 C11            1.1563     3.1654     0.0081 C.ar    
  12 C12            1.1750     1.7832     0.0004 C.ar    
  13 C13           -0.0126     1.0758     0.0080 C.ar    
  14 C14           -1.2190     1.7506     0.0173 C.ar    
  15 C15           -1.2377     3.1328     0.0294 C.ar    
  16 H16            2.2517     9.3591    -3.0369 H       
  17 H17            1.5087    10.9321    -2.6604 H       
  18 H18            1.5095     9.6339    -1.4426 H       
  19 H19           -0.1246     7.0013    -3.5930 H       
  20 H20           -0.0872     5.2179    -2.0871 H       
  21 H21           -0.9608     5.6951     0.5560 H       
  22 H22            0.8190     5.7193     0.5404 H       
  23 H23            2.0842     3.7181     0.0029 H       
  24 H24            2.1175     1.2560    -0.0111 H       
  25 H25            0.0021    -0.0041     0.0020 H       
  26 H26           -2.1469     1.1980     0.0188 H       
  27 H27           -2.1802     3.6600     0.0413 H       
@<TRIPOS>BOND
   1    1    2 1
   2    1   16 1
   3    1   17 1
   4    1   18 1
   5    2    3 2
   6    2    4 2
   7    2    5 am
   8    5    6 am
   9    5   19 1
  10    6    7 2
  11    6    8 am
  12    8    9 1
  13    8   20 1
  14    9   10 1
  15    9   21 1
  16    9   22 1
  17   10   15 ar
  18   10   11 ar
  19   11   12 ar
  20   11   23 1
  21   12   13 ar
  22   12   24 1
  23   13   14 ar
  24   13   25 1
  25   14   15 ar
  26   14   26 1
  27   15   27 1

#	End of record

