#	Name: SM28
#	Creating user name:	iorga
#	Creation time:	09. 07. 2020 11:40

#	Modifying user name:	iorga
#	Modification time:	09. 07. 2020 11:40

#	Program:	corina 4.2.0 0026  27.09.2018

@<TRIPOS>MOLECULE
UNK 
  35   36    0    0    0
UNK L
NO_CHARGES


@<TRIPOS>ATOM
   1 O1            -0.5009     6.5095     0.4338 O.2     
   2 S2            -1.2787     5.6296     1.2338 S.o2    
   3 C3            -2.3249     4.5238     0.2467 C.3     
   4 C4            -1.1155     3.6256    -0.0234 C.3     
   5 N5            -1.4690     2.2109    -0.1650 N.am    
   6 C6            -2.2435     1.8094    -1.1923 C.2     
   7 C7            -2.5146     0.3420    -1.4029 C.3     
   8 O8            -2.7264     2.6293    -1.9442 O.2     
   9 C9            -0.2379     4.1275    -1.1718 C.3     
  10 C10            0.9995     3.2362    -1.2951 C.3     
  11 C11            1.8035     3.6567    -2.4983 C.ar    
  12 C12            1.5570     3.0801    -3.7302 C.ar    
  13 C13            2.2912     3.4692    -4.8349 C.ar    
  14 C14            3.2791     4.4275    -4.7057 C.ar    
  15 C15            3.5292     5.0004    -3.4727 C.ar    
  16 C16            2.7914     4.6150    -2.3691 C.ar    
  17 C17           -0.5553     3.9704     1.3584 C.3     
  18 O18           -1.9048     6.0481     2.4388 O.2     
  19 H19           -2.7175     4.9961    -0.6538 H       
  20 H20           -3.1013     4.0322     0.8328 H       
  21 H21           -1.1456     1.5632     0.4806 H       
  22 H22           -1.7515    -0.0781    -2.0580 H       
  23 H23           -2.4927    -0.1730    -0.4425 H       
  24 H24           -3.4958     0.2158    -1.8605 H       
  25 H25           -0.8038     4.0943    -2.1028 H       
  26 H26            0.0715     5.1532    -0.9710 H       
  27 H27            1.6099     3.3357    -0.3975 H       
  28 H28            0.6893     2.1977    -1.4102 H       
  29 H29            0.7881     2.3282    -3.8304 H       
  30 H30            2.0960     3.0214    -5.7981 H       
  31 H31            3.8557     4.7283    -5.5679 H       
  32 H32            4.3012     5.7488    -3.3716 H       
  33 H33            2.9871     5.0623    -1.4057 H       
  34 H34           -0.9907     3.3722     2.1588 H       
  35 H35            0.5342     3.9792     1.3891 H       
@<TRIPOS>BOND
   1    1    2 2
   2    2    3 1
   3    2   17 1
   4    2   18 2
   5    3    4 1
   6    3   19 1
   7    3   20 1
   8    4   17 1
   9    4    5 1
  10    4    9 1
  11    5    6 am
  12    5   21 1
  13    6    7 1
  14    6    8 2
  15    7   22 1
  16    7   23 1
  17    7   24 1
  18    9   10 1
  19    9   25 1
  20    9   26 1
  21   10   11 1
  22   10   27 1
  23   10   28 1
  24   11   16 ar
  25   11   12 ar
  26   12   13 ar
  27   12   29 1
  28   13   14 ar
  29   13   30 1
  30   14   15 ar
  31   14   31 1
  32   15   16 ar
  33   15   32 1
  34   16   33 1
  35   17   34 1
  36   17   35 1

#	End of record

