#	Name: SM26
#	Creating user name:	iorga
#	Creation time:	09. 07. 2020 11:40

#	Modifying user name:	iorga
#	Modification time:	09. 07. 2020 11:40

#	Program:	corina 4.2.0 0026  27.09.2018

@<TRIPOS>MOLECULE
UNK 
  28   28    0    0    0
UNK L
NO_CHARGES


@<TRIPOS>ATOM
   1 O1            -1.3540     8.1583    -0.8917 O.2     
   2 S2            -0.1147     7.6796    -1.3959 S.o2    
   3 C3            -0.0901     5.8658    -1.4071 C.3     
   4 C4            -0.0705     5.3471     0.0321 C.3     
   5 C5            -0.0501     3.8402     0.0228 C.ar    
   6 C6             1.1563     3.1654     0.0081 C.ar    
   7 C7             1.1750     1.7832     0.0004 C.ar    
   8 C8            -0.0126     1.0758     0.0080 C.ar    
   9 C9            -1.2190     1.7506     0.0173 C.ar    
  10 C10           -1.2377     3.1328     0.0294 C.ar    
  11 N11           -0.1344     8.1025    -2.9968 N.am    
  12 C12           -1.1948     7.7833    -3.7651 C.2     
  13 C13           -1.2127     8.1682    -5.2221 C.3     
  14 O14           -2.1345     7.1864    -3.2840 O.2     
  15 O15            1.1197     8.1920    -0.9132 O.2     
  16 H16            0.8001     5.5177    -1.9309 H       
  17 H17           -0.9796     5.4935    -1.9154 H       
  18 H18           -0.9608     5.6951     0.5560 H       
  19 H19            0.8190     5.7193     0.5404 H       
  20 H20            2.0842     3.7181     0.0029 H       
  21 H21            2.1175     1.2560    -0.0111 H       
  22 H22            0.0021    -0.0041     0.0020 H       
  23 H23           -2.1469     1.1980     0.0187 H       
  24 H24           -2.1802     3.6600     0.0413 H       
  25 H25            0.6172     8.5799    -3.3817 H       
  26 H26           -0.3689     7.7026    -5.7313 H       
  27 H27           -2.1436     7.8284    -5.6762 H       
  28 H28           -1.1387     9.2519    -5.3125 H       
@<TRIPOS>BOND
   1    1    2 2
   2    2    3 1
   3    2   11 am
   4    2   15 2
   5    3    4 1
   6    3   16 1
   7    3   17 1
   8    4    5 1
   9    4   18 1
  10    4   19 1
  11    5   10 ar
  12    5    6 ar
  13    6    7 ar
  14    6   20 1
  15    7    8 ar
  16    7   21 1
  17    8    9 ar
  18    8   22 1
  19    9   10 ar
  20    9   23 1
  21   10   24 1
  22   11   12 am
  23   11   25 1
  24   12   13 1
  25   12   14 2
  26   13   26 1
  27   13   27 1
  28   13   28 1

#	End of record

