@<TRIPOS>MOLECULE
UNK
   31    32     1     0     0
SMALL
bcc


@<TRIPOS>ATOM
      1 O1         -2.4720    0.7810   -0.0170 o         1 UNK     -0.635300
      2 S2         -1.4560    1.7740    0.0190 s6        1 UNK      1.574800
      3 N3         -0.0110    0.9660    0.0070 nh        1 UNK     -0.847800
      4 C4          1.1840    1.6780   -0.0000 cc        1 UNK      0.576200
      5 N5          1.3220    2.9790    0.0060 nd        1 UNK     -0.428300
      6 O6          2.4850    3.3070   -0.0030 os        1 UNK     -0.112100
      7 C7          3.3030    2.2390   -0.0170 cd        1 UNK      0.353200
      8 C8          4.7810    2.2540   -0.0310 ca        1 UNK     -0.152500
      9 C9          5.4940    1.0540   -0.0380 ca        1 UNK     -0.093000
     10 C10         6.8730    1.0750   -0.0550 ca        1 UNK     -0.134500
     11 C11         7.5500    2.2820   -0.0560 ca        1 UNK     -0.107000
     12 C12         6.8490    3.4750   -0.0430 ca        1 UNK     -0.134500
     13 C13         5.4700    3.4680   -0.0310 ca        1 UNK     -0.093000
     14 C14         2.4950    1.1370   -0.0100 cc        1 UNK     -0.378600
     15 N15        -1.5650    2.6050   -1.4100 n3        1 UNK     -0.809500
     16 C16        -2.1760    1.9720   -2.5810 c3        1 UNK      0.204100
     17 C17        -1.0490    3.9730   -1.5030 c3        1 UNK      0.204100
     18 O18        -1.3610    2.7520    1.0450 o         1 UNK     -0.635300
     19 H19         0.0020   -0.0040    0.0020 hn        1 UNK      0.463800
     20 H20         4.9670    0.1110   -0.0340 ha        1 UNK      0.145000
     21 H21         7.4260    0.1470   -0.0650 ha        1 UNK      0.139000
     22 H22         8.6300    2.2930   -0.0650 ha        1 UNK      0.137000
     23 H23         7.3830    4.4130   -0.0440 ha        1 UNK      0.139000
     24 H24         4.9240    4.3990   -0.0220 ha        1 UNK      0.145000
     25 H25         2.7860    0.0980   -0.0130 ha        1 UNK      0.177000
     26 H26        -3.2460    2.1800   -2.5890 h1        1 UNK      0.050533
     27 H27        -1.7220    2.3690   -3.4880 h1        1 UNK      0.050533
     28 H28        -2.0160    0.8940   -2.5360 h1        1 UNK      0.050533
     29 H29        -0.0020    3.9460   -1.8080 h1        1 UNK      0.050533
     30 H30        -1.6280    4.5300   -2.2390 h1        1 UNK      0.050533
     31 H31        -1.1310    4.4590   -0.5310 h1        1 UNK      0.050533
@<TRIPOS>BOND
     1    1    2 2   
     2    2    3 1   
     3    2   15 1   
     4    2   18 2   
     5    3    4 1   
     6    3   19 1   
     7    4    5 2   
     8    4   14 1   
     9    5    6 1   
    10    6    7 1   
    11    7    8 1   
    12    7   14 2   
    13    8    9 ar  
    14    8   13 ar  
    15    9   10 ar  
    16    9   20 1   
    17   10   11 ar  
    18   10   21 1   
    19   11   12 ar  
    20   11   22 1   
    21   12   13 ar  
    22   12   23 1   
    23   13   24 1   
    24   14   25 1   
    25   15   16 1   
    26   15   17 1   
    27   16   26 1   
    28   16   27 1   
    29   16   28 1   
    30   17   29 1   
    31   17   30 1   
    32   17   31 1   
@<TRIPOS>SUBSTRUCTURE
     1 UNK         1 TEMP              0 ****  ****    0 ROOT
