#	Name: SM34
#	Creating user name:	iorga
#	Creation time:	09. 07. 2020 11:40

#	Modifying user name:	iorga
#	Modification time:	09. 07. 2020 11:40

#	Program:	corina 4.2.0 0026  27.09.2018

@<TRIPOS>MOLECULE
UNK 
  39   40    0    0    0
UNK L
NO_CHARGES


@<TRIPOS>ATOM
   1 O1            -0.4388     0.6038    -3.9820 O.2     
   2 S2             0.3206     1.0225    -2.8562 S.o2    
   3 N3             1.5890    -0.0345    -2.7285 N.am    
   4 C4             2.4894     0.0377    -1.5751 C.3     
   5 C5             1.6936    -0.0983    -0.2416 C.3     
   6 S6             1.7187     1.7306    -0.3217 S.3     
   7 C7             3.1275     1.4551    -1.4581 C.3     
   8 C8             3.5715    -1.0393    -1.6751 C.3     
   9 C9             4.3320    -0.8775    -2.9928 C.3     
  10 C10            5.3978    -1.9383    -3.0912 C.ar    
  11 C11            6.6668    -1.6906    -2.6021 C.ar    
  12 C12            7.6431    -2.6654    -2.6881 C.ar    
  13 C13            7.3534    -3.8842    -3.2726 C.ar    
  14 C14            6.0858    -4.1300    -3.7663 C.ar    
  15 C15            5.1081    -3.1571    -3.6757 C.ar    
  16 N16            0.9533     2.5031    -3.2434 N.am    
  17 C17            1.5928     2.7086    -4.5453 C.3     
  18 C18            0.8736     3.6073    -2.2839 C.3     
  19 O19           -0.2287     1.1495    -1.5519 O.2     
  20 H20            1.7359    -0.7014    -3.4175 H       
  21 H21            2.2672    -0.5205     0.5836 H       
  22 H22            0.7032    -0.5400    -0.3517 H       
  23 H23            3.0878     2.0435    -2.3748 H       
  24 H24            4.1047     1.4702    -0.9754 H       
  25 H25            4.2649    -0.9363    -0.8404 H       
  26 H26            3.1072    -2.0250    -1.6422 H       
  27 H27            3.6386    -0.9805    -3.8275 H       
  28 H28            4.7963     0.1082    -3.0256 H       
  29 H29            6.8944    -0.7368    -2.1495 H       
  30 H30            8.6335    -2.4733    -2.3026 H       
  31 H31            8.1174    -4.6442    -3.3437 H       
  32 H32            5.8595    -5.0820    -4.2233 H       
  33 H33            4.1179    -3.3490    -4.0618 H       
  34 H34            0.8474     3.0415    -5.2677 H       
  35 H35            2.3717     3.4654    -4.4521 H       
  36 H36            2.0350     1.7720    -4.8849 H       
  37 H37            0.2851     3.2967    -1.4206 H       
  38 H38            1.8779     3.8802    -1.9598 H       
  39 H39            0.3986     4.4665    -2.7574 H       
@<TRIPOS>BOND
   1    1    2 2
   2    2    3 am
   3    2   16 am
   4    2   19 2
   5    3    4 1
   6    3   20 1
   7    4    7 1
   8    4    5 1
   9    4    8 1
  10    5    6 1
  11    5   21 1
  12    5   22 1
  13    6    7 1
  14    7   23 1
  15    7   24 1
  16    8    9 1
  17    8   25 1
  18    8   26 1
  19    9   10 1
  20    9   27 1
  21    9   28 1
  22   10   15 ar
  23   10   11 ar
  24   11   12 ar
  25   11   29 1
  26   12   13 ar
  27   12   30 1
  28   13   14 ar
  29   13   31 1
  30   14   15 ar
  31   14   32 1
  32   15   33 1
  33   16   17 1
  34   16   18 1
  35   17   34 1
  36   17   35 1
  37   17   36 1
  38   18   37 1
  39   18   38 1
  40   18   39 1

#	End of record

