@<TRIPOS>MOLECULE
UNK
   33    33     1     0     0
SMALL
bcc


@<TRIPOS>ATOM
      1 C1          2.4400   10.4530   -2.7540 c3        1 UNK      0.204600
      2 N2          1.2800   10.2150   -1.8910 n3        1 UNK     -0.808500
      3 C3          1.3880   10.4240   -0.4460 c3        1 UNK      0.204600
      4 S4         -0.1520    9.7090   -2.5500 s6        1 UNK      1.566500
      5 O5         -0.1350   10.1190   -3.9110 o         1 UNK     -0.637300
      6 O6         -1.1710   10.0910   -1.6370 o         1 UNK     -0.637300
      7 N7         -0.1300    8.0530   -2.5610 n         1 UNK     -0.678300
      8 C8         -0.1110    7.3730   -1.3980 c         1 UNK      0.688100
      9 O9         -0.1100    7.9730   -0.3440 o         1 UNK     -0.588100
     10 C10        -0.0900    5.8660   -1.4070 c3        1 UNK     -0.148400
     11 C11        -0.0700    5.3470    0.0320 c3        1 UNK     -0.031100
     12 C12        -0.0500    3.8400    0.0230 ca        1 UNK     -0.088300
     13 C13         1.1560    3.1650    0.0080 ca        1 UNK     -0.126000
     14 C14         1.1750    1.7830    0.0000 ca        1 UNK     -0.127500
     15 C15        -0.0130    1.0760    0.0080 ca        1 UNK     -0.128000
     16 C16        -1.2190    1.7510    0.0170 ca        1 UNK     -0.127500
     17 C17        -1.2380    3.1330    0.0290 ca        1 UNK     -0.126000
     18 H18         2.4370   11.4900   -3.0890 h1        1 UNK      0.051033
     19 H19         3.3550   10.2530   -2.1970 h1        1 UNK      0.051033
     20 H20         2.3900    9.7920   -3.6200 h1        1 UNK      0.051033
     21 H21         0.4320   10.1990    0.0260 h1        1 UNK      0.051033
     22 H22         2.1570    9.7670   -0.0400 h1        1 UNK      0.051033
     23 H23         1.6550   11.4620   -0.2480 h1        1 UNK      0.051033
     24 H24        -0.1310    7.5740   -3.4040 hn        1 UNK      0.334500
     25 H25         0.8000    5.5180   -1.9310 hc        1 UNK      0.074700
     26 H26        -0.9800    5.4930   -1.9150 hc        1 UNK      0.074700
     27 H27        -0.9610    5.6950    0.5560 hc        1 UNK      0.067700
     28 H28         0.8190    5.7190    0.5400 hc        1 UNK      0.067700
     29 H29         2.0840    3.7180    0.0030 ha        1 UNK      0.132000
     30 H30         2.1180    1.2560   -0.0110 ha        1 UNK      0.133000
     31 H31         0.0020   -0.0040    0.0020 ha        1 UNK      0.133000
     32 H32        -2.1470    1.1980    0.0190 ha        1 UNK      0.133000
     33 H33        -2.1800    3.6600    0.0410 ha        1 UNK      0.132000
@<TRIPOS>BOND
     1    1    2 1   
     2    1   18 1   
     3    1   19 1   
     4    1   20 1   
     5    2    3 1   
     6    2    4 1   
     7    3   21 1   
     8    3   22 1   
     9    3   23 1   
    10    4    5 2   
    11    4    6 2   
    12    4    7 1   
    13    7    8 1   
    14    7   24 1   
    15    8    9 2   
    16    8   10 1   
    17   10   11 1   
    18   10   25 1   
    19   10   26 1   
    20   11   12 1   
    21   11   27 1   
    22   11   28 1   
    23   12   13 ar  
    24   12   17 ar  
    25   13   14 ar  
    26   13   29 1   
    27   14   15 ar  
    28   14   30 1   
    29   15   16 ar  
    30   15   31 1   
    31   16   17 ar  
    32   16   32 1   
    33   17   33 1   
@<TRIPOS>SUBSTRUCTURE
     1 UNK         1 TEMP              0 ****  ****    0 ROOT
