#	Name: UNK
#	Creating user name:	iorga
#	Creation time:	10. 07. 2020 09:43

#	Modifying user name:	iorga
#	Modification time:	10. 07. 2020 09:43

#	Program:	corina 4.2.0 0026  27.09.2018

@<TRIPOS>MOLECULE
UNK
  29   29    0    0    0
SMALL
NO_CHARGES


@<TRIPOS>ATOM
   1 C1             0.8091    10.4291    -2.3116 C.3     
   2 S2            -0.5250     9.4710    -3.0816 S.o2    
   3 O3            -0.4641     9.5797    -4.4971 O.2     
   4 O4            -1.7471     9.6677    -2.3837 O.2     
   5 N5            -0.1296     7.8923    -2.7758 N.am    
   6 C6            -0.1109     7.3956    -1.3976 C.3     
   7 C7            -0.0901     5.8658    -1.4071 C.3     
   8 C8            -0.0705     5.3471     0.0321 C.3     
   9 C9            -0.0501     3.8402     0.0228 C.ar    
  10 C10            1.1563     3.1654     0.0081 C.ar    
  11 C11            1.1750     1.7832     0.0004 C.ar    
  12 C12           -0.0126     1.0758     0.0080 C.ar    
  13 C13           -1.2190     1.7506     0.0173 C.ar    
  14 C14           -1.2377     3.1328     0.0294 C.ar    
  15 H15            1.7619    10.1533    -2.7635 H       
  16 H16            0.6282    11.4928    -2.4658 H       
  17 H17            0.8388    10.2167    -1.2429 H       
  18 H18            0.0895     7.2964    -3.5091 H       
  19 H19           -1.0011     7.7436    -0.8738 H       
  20 H20            0.7786     7.7679    -0.8894 H       
  21 H21            0.8001     5.5177    -1.9309 H       
  22 H22           -0.9796     5.4935    -1.9154 H       
  23 H23           -0.9608     5.6951     0.5560 H       
  24 H24            0.8190     5.7193     0.5404 H       
  25 H25            2.0842     3.7181     0.0029 H       
  26 H26            2.1175     1.2560    -0.0111 H       
  27 H27            0.0021    -0.0041     0.0020 H       
  28 H28           -2.1469     1.1980     0.0188 H       
  29 H29           -2.1802     3.6600     0.0413 H       
@<TRIPOS>BOND
   1    1    2 1
   2    1   15 1
   3    1   16 1
   4    1   17 1
   5    2    3 2
   6    2    4 2
   7    2    5 am
   8    5    6 1
   9    5   18 1
  10    6    7 1
  11    6   19 1
  12    6   20 1
  13    7    8 1
  14    7   21 1
  15    7   22 1
  16    8    9 1
  17    8   23 1
  18    8   24 1
  19    9   14 ar
  20    9   10 ar
  21   10   11 ar
  22   10   25 1
  23   11   12 ar
  24   11   26 1
  25   12   13 ar
  26   12   27 1
  27   13   14 ar
  28   13   28 1
  29   14   29 1

#	End of record

