@<TRIPOS>MOLECULE
UNK
   31    32     1     0     0
SMALL
bcc


@<TRIPOS>ATOM
      1 O1         -2.4720    0.7810   -0.0170 o         1 UNK     -0.638800
      2 S2         -1.4560    1.7740    0.0190 s6        1 UNK      1.578800
      3 N3         -0.0110    0.9660    0.0070 nh        1 UNK     -0.842800
      4 C4          1.1950    1.6840   -0.0000 cc        1 UNK      0.514200
      5 N5          1.3350    3.0170    0.0060 nc        1 UNK     -0.388000
      6 N6          2.5880    3.3090   -0.0050 nd        1 UNK     -0.132800
      7 C7          2.4510    1.1660   -0.0100 cd        1 UNK     -0.263600
      8 N8          3.2980    2.2360   -0.0180 na        1 UNK      0.127300
      9 C9          4.6990    2.1770   -0.0320 ca        1 UNK      0.015800
     10 C10         5.3430    0.9470   -0.0410 ca        1 UNK     -0.128500
     11 C11         6.7230    0.8920   -0.0610 ca        1 UNK     -0.115500
     12 C12         7.4630    2.0600   -0.0620 ca        1 UNK     -0.127000
     13 C13         6.8250    3.2870   -0.0480 ca        1 UNK     -0.115500
     14 C14         5.4450    3.3480   -0.0330 ca        1 UNK     -0.128500
     15 N15        -1.5650    2.6050   -1.4100 n3        1 UNK     -0.807500
     16 C16        -2.1760    1.9720   -2.5810 c3        1 UNK      0.206600
     17 C17        -1.0490    3.9730   -1.5030 c3        1 UNK      0.206600
     18 O18        -1.3610    2.7520    1.0450 o         1 UNK     -0.638800
     19 H19         0.0020   -0.0040    0.0020 hn        1 UNK      0.460800
     20 H20         2.7230    0.1210   -0.0120 h4        1 UNK      0.199000
     21 H21         4.7660    0.0350   -0.0350 ha        1 UNK      0.151000
     22 H22         7.2250   -0.0640   -0.0720 ha        1 UNK      0.141500
     23 H23         8.5420    2.0150   -0.0730 ha        1 UNK      0.140000
     24 H24         7.4050    4.1970   -0.0490 ha        1 UNK      0.141500
     25 H25         4.9470    4.3060   -0.0230 ha        1 UNK      0.151000
     26 H26        -3.2460    2.1800   -2.5890 h1        1 UNK      0.049200
     27 H27        -1.7220    2.3690   -3.4880 h1        1 UNK      0.049200
     28 H28        -2.0160    0.8940   -2.5360 h1        1 UNK      0.049200
     29 H29        -0.0020    3.9460   -1.8080 h1        1 UNK      0.049200
     30 H30        -1.6280    4.5300   -2.2390 h1        1 UNK      0.049200
     31 H31        -1.1310    4.4590   -0.5310 h1        1 UNK      0.049200
@<TRIPOS>BOND
     1    1    2 2   
     2    2    3 1   
     3    2   15 1   
     4    2   18 2   
     5    3    4 1   
     6    3   19 1   
     7    4    5 1   
     8    4    7 2   
     9    5    6 2   
    10    6    8 1   
    11    7    8 1   
    12    7   20 1   
    13    8    9 1   
    14    9   10 ar  
    15    9   14 ar  
    16   10   11 ar  
    17   10   21 1   
    18   11   12 ar  
    19   11   22 1   
    20   12   13 ar  
    21   12   23 1   
    22   13   14 ar  
    23   13   24 1   
    24   14   25 1   
    25   15   16 1   
    26   15   17 1   
    27   16   26 1   
    28   16   27 1   
    29   16   28 1   
    30   17   29 1   
    31   17   30 1   
    32   17   31 1   
@<TRIPOS>SUBSTRUCTURE
     1 UNK         1 TEMP              0 ****  ****    0 ROOT
