#	Name: SM38
#	Creating user name:	iorga
#	Creation time:	09. 07. 2020 11:40

#	Modifying user name:	iorga
#	Modification time:	09. 07. 2020 11:40

#	Program:	corina 4.2.0 0026  27.09.2018

@<TRIPOS>MOLECULE
UNK 
  36   37    0    0    0
UNK L
NO_CHARGES


@<TRIPOS>ATOM
   1 C1             1.1665     0.0871    -2.7901 C.3     
   2 S2            -0.3339    -0.4110    -1.9004 S.o2    
   3 N3            -0.0566     0.0475    -0.3335 N.am    
   4 C4             0.1352     1.4628    -0.0074 C.3     
   5 C5            -0.3702     1.8324     1.3891 C.3     
   6 S6            -0.7943     3.4928     0.7914 S.o2    
   7 C7            -0.9261     2.3729    -0.6298 C.3     
   8 O8             0.3347     4.3521     0.7111 O.2     
   9 O9            -2.0598     3.9408     1.2574 O.2     
  10 C10            1.5653     1.9364    -0.2744 C.3     
  11 C11            2.5493     1.0343     0.4732 C.3     
  12 C12            3.9602     1.4272     0.1183 C.ar    
  13 C13            4.5948     0.8301    -0.9549 C.ar    
  14 C14            5.8873     1.1939    -1.2834 C.ar    
  15 C15            6.5490     2.1473    -0.5323 C.ar    
  16 C16            5.9163     2.7406     0.5441 C.ar    
  17 C17            4.6219     2.3805     0.8694 C.ar    
  18 O18           -0.4303    -1.8274    -1.8393 O.2     
  19 O19           -1.4410     0.3818    -2.3069 O.2     
  20 H20            2.0289    -0.4246    -2.3629 H       
  21 H21            1.0703    -0.1796    -3.8425 H       
  22 H22            1.3018     1.1649    -2.6993 H       
  23 H23           -0.0212    -0.6211     0.3684 H       
  24 H24           -1.2404     1.2527     1.6971 H       
  25 H25            0.4172     1.8359     2.1427 H       
  26 H26           -0.6040     2.8288    -1.5660 H       
  27 H27           -1.9036     1.8976    -0.7116 H       
  28 H28            1.7699     1.8894    -1.3440 H       
  29 H29            1.6786     2.9636     0.0724 H       
  30 H30            2.4004     1.1456     1.5472 H       
  31 H31            2.3787    -0.0039     0.1884 H       
  32 H32            4.0794     0.0820    -1.5390 H       
  33 H33            6.3818     0.7302    -2.1241 H       
  34 H34            7.5604     2.4284    -0.7862 H       
  35 H35            6.4334     3.4852     1.1312 H       
  36 H36            4.1277     2.8438     1.7106 H       
@<TRIPOS>BOND
   1    1    2 1
   2    1   20 1
   3    1   21 1
   4    1   22 1
   5    2    3 am
   6    2   18 2
   7    2   19 2
   8    3    4 1
   9    3   23 1
  10    4    7 1
  11    4    5 1
  12    4   10 1
  13    5    6 1
  14    5   24 1
  15    5   25 1
  16    6    7 1
  17    6    8 2
  18    6    9 2
  19    7   26 1
  20    7   27 1
  21   10   11 1
  22   10   28 1
  23   10   29 1
  24   11   12 1
  25   11   30 1
  26   11   31 1
  27   12   17 ar
  28   12   13 ar
  29   13   14 ar
  30   13   32 1
  31   14   15 ar
  32   14   33 1
  33   15   16 ar
  34   15   34 1
  35   16   17 ar
  36   16   35 1
  37   17   36 1

#	End of record

