@<TRIPOS>MOLECULE
UNK
   26    27     1     0     0
SMALL
bcc


@<TRIPOS>ATOM
      1 O1         -2.4340    0.7440    0.0430 o         1 UNK     -0.646300
      2 S2         -1.4560    1.7740    0.0190 s6        1 UNK      1.476900
      3 N3         -0.0110    0.9660    0.0070 nh        1 UNK     -0.848800
      4 C4          1.1950    1.6840   -0.0000 cc        1 UNK      0.499200
      5 N5          1.3350    3.0170    0.0060 nc        1 UNK     -0.382000
      6 N6          2.5880    3.3090   -0.0050 nd        1 UNK     -0.130800
      7 C7          2.4510    1.1660   -0.0100 cd        1 UNK     -0.246600
      8 N8          3.2980    2.2360   -0.0180 na        1 UNK      0.128300
      9 C9          4.6990    2.1770   -0.0320 ca        1 UNK      0.013800
     10 C10         5.3430    0.9470   -0.0410 ca        1 UNK     -0.127000
     11 C11         6.7230    0.8920   -0.0610 ca        1 UNK     -0.115500
     12 C12         7.4630    2.0600   -0.0620 ca        1 UNK     -0.126000
     13 C13         6.8250    3.2870   -0.0480 ca        1 UNK     -0.115500
     14 C14         5.4450    3.3480   -0.0330 ca        1 UNK     -0.127000
     15 C15        -1.4960    2.6520   -1.5690 c3        1 UNK     -0.372300
     16 O16        -1.3350    2.6950    1.0940 o         1 UNK     -0.646300
     17 H17         0.0020   -0.0040    0.0020 hn        1 UNK      0.462800
     18 H18         2.7230    0.1210   -0.0120 h4        1 UNK      0.200000
     19 H19         4.7660    0.0350   -0.0350 ha        1 UNK      0.150500
     20 H20         7.2250   -0.0640   -0.0720 ha        1 UNK      0.142000
     21 H21         8.5420    2.0150   -0.0730 ha        1 UNK      0.141000
     22 H22         7.4050    4.1970   -0.0490 ha        1 UNK      0.142000
     23 H23         4.9470    4.3060   -0.0230 ha        1 UNK      0.150500
     24 H24        -1.4400    1.9310   -2.3840 h1        1 UNK      0.125367
     25 H25        -2.4250    3.2170   -1.6480 h1        1 UNK      0.125367
     26 H26        -0.6490    3.3340   -1.6280 h1        1 UNK      0.125367
@<TRIPOS>BOND
     1    1    2 2   
     2    2    3 1   
     3    2   15 1   
     4    2   16 2   
     5    3    4 1   
     6    3   17 1   
     7    4    5 1   
     8    4    7 2   
     9    5    6 2   
    10    6    8 1   
    11    7    8 1   
    12    7   18 1   
    13    8    9 1   
    14    9   10 ar  
    15    9   14 ar  
    16   10   11 ar  
    17   10   19 1   
    18   11   12 ar  
    19   11   20 1   
    20   12   13 ar  
    21   12   21 1   
    22   13   14 ar  
    23   13   22 1   
    24   14   23 1   
    25   15   24 1   
    26   15   25 1   
    27   15   26 1   
@<TRIPOS>SUBSTRUCTURE
     1 UNK         1 TEMP              0 ****  ****    0 ROOT
