@<TRIPOS>MOLECULE
UNK
   34    35     1     0     0
SMALL
bcc


@<TRIPOS>ATOM
      1 O1          0.3230    2.7100   -4.4480 o         1 UNK     -0.649800
      2 S2         -0.7930    2.5200   -3.5890 s6        1 UNK      1.456900
      3 C3         -1.6280    4.0980   -3.2730 c3        1 UNK     -0.317600
      4 C4         -2.2950    4.5900   -4.5590 c3        1 UNK     -0.012100
      5 C5         -2.9890    5.9010   -4.2960 ca        1 UNK     -0.080300
      6 C6         -4.3100    5.9150   -3.8870 ca        1 UNK     -0.124500
      7 C7         -4.9450    7.1170   -3.6410 ca        1 UNK     -0.128000
      8 C8         -4.2630    8.3070   -3.8140 ca        1 UNK     -0.128000
      9 C9         -2.9440    8.2940   -4.2280 ca        1 UNK     -0.128000
     10 C10        -2.3070    7.0910   -4.4690 ca        1 UNK     -0.124500
     11 N11        -0.1220    2.1080   -2.1320 n3        1 UNK     -0.903100
     12 C12        -0.9820    1.8800   -0.9680 cy        1 UNK      0.207200
     13 C13        -2.2400    1.0740   -1.3000 c3        1 UNK     -0.122100
     14 C14        -0.2270    1.3700    0.2730 cy        1 UNK      0.097400
     15 O15        -1.0300    2.3110    1.0130 os        1 UNK     -0.417600
     16 C16        -1.2580    3.1490   -0.1400 cy        1 UNK      0.097400
     17 O17        -1.7440    1.4940   -3.8400 o         1 UNK     -0.649800
     18 H18        -2.3860    3.9600   -2.5010 h1        1 UNK      0.111700
     19 H19        -0.8980    4.8350   -2.9380 h1        1 UNK      0.111700
     20 H20        -1.5380    4.7280   -5.3310 hc        1 UNK      0.069200
     21 H21        -3.0250    3.8530   -4.8940 hc        1 UNK      0.069200
     22 H22        -4.8440    4.9850   -3.7560 ha        1 UNK      0.133500
     23 H23        -5.9750    7.1280   -3.3170 ha        1 UNK      0.133000
     24 H24        -4.7600    9.2470   -3.6250 ha        1 UNK      0.132000
     25 H25        -2.4110    9.2240   -4.3640 ha        1 UNK      0.133000
     26 H26        -1.2770    7.0810   -4.7930 ha        1 UNK      0.133500
     27 H27         0.8400    2.0170   -2.0490 hn        1 UNK      0.454800
     28 H28        -2.8700    1.0030   -0.4140 hc        1 UNK      0.064033
     29 H29        -2.7910    1.5720   -2.0980 hc        1 UNK      0.064033
     30 H30        -1.9550    0.0740   -1.6250 hc        1 UNK      0.064033
     31 H31        -0.4310    0.3280    0.5170 h1        1 UNK      0.062950
     32 H32         0.8370    1.6060    0.2700 h1        1 UNK      0.062950
     33 H33        -0.5090    3.9310   -0.2690 h1        1 UNK      0.062950
     34 H34        -2.2790    3.5190   -0.2270 h1        1 UNK      0.062950
@<TRIPOS>BOND
     1    1    2 2   
     2    2    3 1   
     3    2   11 1   
     4    2   17 2   
     5    3    4 1   
     6    3   18 1   
     7    3   19 1   
     8    4    5 1   
     9    4   20 1   
    10    4   21 1   
    11    5    6 ar  
    12    5   10 ar  
    13    6    7 ar  
    14    6   22 1   
    15    7    8 ar  
    16    7   23 1   
    17    8    9 ar  
    18    8   24 1   
    19    9   10 ar  
    20    9   25 1   
    21   10   26 1   
    22   11   12 1   
    23   11   27 1   
    24   12   13 1   
    25   12   14 1   
    26   12   16 1   
    27   13   28 1   
    28   13   29 1   
    29   13   30 1   
    30   14   15 1   
    31   14   31 1   
    32   14   32 1   
    33   15   16 1   
    34   16   33 1   
    35   16   34 1   
@<TRIPOS>SUBSTRUCTURE
     1 UNK         1 TEMP              0 ****  ****    0 ROOT
