@<TRIPOS>MOLECULE
UNK
   35    36     1     0     0
SMALL
bcc


@<TRIPOS>ATOM
      1 O1         -0.5010    6.5100    0.4340 o         1 UNK     -0.643800
      2 S2         -1.2790    5.6300    1.2340 s6        1 UNK      1.324000
      3 C3         -2.3250    4.5240    0.2470 cy        1 UNK     -0.321100
      4 C4         -1.1160    3.6260   -0.0230 cy        1 UNK      0.186400
      5 N5         -1.4690    2.2110   -0.1650 n         1 UNK     -0.567900
      6 C6         -2.2440    1.8090   -1.1920 c         1 UNK      0.661100
      7 C7         -2.5150    0.3420   -1.4030 c3        1 UNK     -0.176100
      8 O8         -2.7260    2.6290   -1.9440 o         1 UNK     -0.598100
      9 C9         -0.2380    4.1270   -1.1720 c3        1 UNK     -0.093400
     10 C10         1.0000    3.2360   -1.2950 c3        1 UNK     -0.032100
     11 C11         1.8040    3.6570   -2.4980 ca        1 UNK     -0.085300
     12 C12         1.5570    3.0800   -3.7300 ca        1 UNK     -0.126000
     13 C13         2.2910    3.4690   -4.8350 ca        1 UNK     -0.126500
     14 C14         3.2790    4.4270   -4.7060 ca        1 UNK     -0.129000
     15 C15         3.5290    5.0000   -3.4730 ca        1 UNK     -0.126500
     16 C16         2.7910    4.6150   -2.3690 ca        1 UNK     -0.126000
     17 C17        -0.5550    3.9700    1.3580 cy        1 UNK     -0.321100
     18 O18        -1.9050    6.0480    2.4390 o         1 UNK     -0.643800
     19 H19        -2.7170    4.9960   -0.6540 h1        1 UNK      0.132450
     20 H20        -3.1010    4.0320    0.8330 h1        1 UNK      0.132450
     21 H21        -1.1460    1.5630    0.4810 hn        1 UNK      0.314500
     22 H22        -1.7510   -0.0780   -2.0580 hc        1 UNK      0.069033
     23 H23        -2.4930   -0.1730   -0.4420 hc        1 UNK      0.069033
     24 H24        -3.4960    0.2160   -1.8600 hc        1 UNK      0.069033
     25 H25        -0.8040    4.0940   -2.1030 hc        1 UNK      0.070200
     26 H26         0.0720    5.1530   -0.9710 hc        1 UNK      0.070200
     27 H27         1.6100    3.3360   -0.3970 hc        1 UNK      0.045200
     28 H28         0.6890    2.1980   -1.4100 hc        1 UNK      0.045200
     29 H29         0.7880    2.3280   -3.8300 ha        1 UNK      0.132000
     30 H30         2.0960    3.0210   -5.7980 ha        1 UNK      0.132500
     31 H31         3.8560    4.7280   -5.5680 ha        1 UNK      0.132000
     32 H32         4.3010    5.7490   -3.3720 ha        1 UNK      0.132500
     33 H33         2.9870    5.0620   -1.4060 ha        1 UNK      0.132000
     34 H34        -0.9910    3.3720    2.1590 h1        1 UNK      0.132450
     35 H35         0.5340    3.9790    1.3890 h1        1 UNK      0.132450
@<TRIPOS>BOND
     1    1    2 2   
     2    2    3 1   
     3    2   17 1   
     4    2   18 2   
     5    3    4 1   
     6    3   19 1   
     7    3   20 1   
     8    4    5 1   
     9    4    9 1   
    10    4   17 1   
    11    5    6 1   
    12    5   21 1   
    13    6    7 1   
    14    6    8 2   
    15    7   22 1   
    16    7   23 1   
    17    7   24 1   
    18    9   10 1   
    19    9   25 1   
    20    9   26 1   
    21   10   11 1   
    22   10   27 1   
    23   10   28 1   
    24   11   12 ar  
    25   11   16 ar  
    26   12   13 ar  
    27   12   29 1   
    28   13   14 ar  
    29   13   30 1   
    30   14   15 ar  
    31   14   31 1   
    32   15   16 ar  
    33   15   32 1   
    34   16   33 1   
    35   17   34 1   
    36   17   35 1   
@<TRIPOS>SUBSTRUCTURE
     1 UNK         1 TEMP              0 ****  ****    0 ROOT
