@<TRIPOS>MOLECULE
UNK
   35    36     1     0     0
SMALL
bcc


@<TRIPOS>ATOM
      1 O1         -2.0950    5.2000   -1.8760 o         1 UNK     -0.580100
      2 C2         -1.1560    5.8190   -2.3290 c         1 UNK      0.691100
      3 N3         -0.0950    6.1010   -1.5470 n         1 UNK     -0.676300
      4 S4         -0.0740    5.6020    0.0320 sy        1 UNK      1.512900
      5 C5         -0.0500    3.8400    0.0220 ca        1 UNK     -0.402500
      6 C6          1.1560    3.1650    0.0080 ca        1 UNK     -0.005500
      7 C7          1.1750    1.7830    0.0000 ca        1 UNK     -0.161500
      8 C8         -0.0130    1.0760    0.0080 ca        1 UNK     -0.059000
      9 C9         -1.2190    1.7510    0.0170 ca        1 UNK     -0.161500
     10 C10        -1.2380    3.1330    0.0290 ca        1 UNK     -0.005500
     11 O11        -1.3240    5.9830    0.5900 o         1 UNK     -0.642300
     12 O12         1.1750    6.0170    0.5680 o         1 UNK     -0.642300
     13 C13        -1.1740    6.2730   -3.7660 c3        1 UNK     -0.148400
     14 C14        -2.4810    5.8270   -4.4240 c3        1 UNK     -0.031100
     15 C15        -2.5000    6.2810   -5.8610 ca        1 UNK     -0.088300
     16 C16        -3.0310    7.5150   -6.1900 ca        1 UNK     -0.125500
     17 C17        -3.0440    7.9330   -7.5070 ca        1 UNK     -0.127500
     18 C18        -2.5350    7.1130   -8.4970 ca        1 UNK     -0.128000
     19 C19        -2.0090    5.8780   -8.1700 ca        1 UNK     -0.127500
     20 C20        -1.9920    5.4620   -6.8520 ca        1 UNK     -0.125500
     21 H21         0.6570    6.5960   -1.9090 hn        1 UNK      0.334500
     22 H22         2.0840    3.7180    0.0030 ha        1 UNK      0.164500
     23 H23         2.1180    1.2560   -0.0110 ha        1 UNK      0.143500
     24 H24         0.0020   -0.0040    0.0020 ha        1 UNK      0.137000
     25 H25        -2.1470    1.1980    0.0190 ha        1 UNK      0.143500
     26 H26        -2.1800    3.6600    0.0410 ha        1 UNK      0.164500
     27 H27        -1.1000    7.3600   -3.8050 hc        1 UNK      0.074200
     28 H28        -0.3310    5.8320   -4.2970 hc        1 UNK      0.074200
     29 H29        -2.5560    4.7410   -4.3860 hc        1 UNK      0.068200
     30 H30        -3.3250    6.2680   -3.8930 hc        1 UNK      0.068200
     31 H31        -3.4320    8.1530   -5.4160 ha        1 UNK      0.132000
     32 H32        -3.4550    8.8980   -7.7630 ha        1 UNK      0.132500
     33 H33        -2.5490    7.4380   -9.5270 ha        1 UNK      0.133000
     34 H34        -1.6120    5.2370   -8.9430 ha        1 UNK      0.132500
     35 H35        -1.5810    4.4960   -6.5950 ha        1 UNK      0.132000
@<TRIPOS>BOND
     1    1    2 2   
     2    2    3 1   
     3    2   13 1   
     4    3    4 1   
     5    3   21 1   
     6    4    5 1   
     7    4   11 2   
     8    4   12 2   
     9    5    6 ar  
    10    5   10 ar  
    11    6    7 ar  
    12    6   22 1   
    13    7    8 ar  
    14    7   23 1   
    15    8    9 ar  
    16    8   24 1   
    17    9   10 ar  
    18    9   25 1   
    19   10   26 1   
    20   13   14 1   
    21   13   27 1   
    22   13   28 1   
    23   14   15 1   
    24   14   29 1   
    25   14   30 1   
    26   15   16 ar  
    27   15   20 ar  
    28   16   17 ar  
    29   16   31 1   
    30   17   18 ar  
    31   17   32 1   
    32   18   19 ar  
    33   18   33 1   
    34   19   20 ar  
    35   19   34 1   
    36   20   35 1   
@<TRIPOS>SUBSTRUCTURE
     1 UNK         1 TEMP              0 ****  ****    0 ROOT
