@<TRIPOS>MOLECULE
UNK
   41    43     1     0     0
SMALL
bcc


@<TRIPOS>ATOM
      1 O1          1.1730    6.1240    0.4860 o         1 UNK     -0.653300
      2 S2         -0.1340    5.7580    0.0650 sy        1 UNK      1.518200
      3 N3         -0.1810    5.9950   -1.5740 n3        1 UNK     -0.896100
      4 C4         -1.4000    5.6860   -2.3240 cy        1 UNK      0.212200
      5 C5         -2.6920    6.1780   -1.6430 cy        1 UNK      0.084900
      6 O6         -2.7300    4.8740   -1.0280 os        1 UNK     -0.424600
      7 C7         -1.9420    4.2660   -2.0720 cy        1 UNK      0.084900
      8 C8         -1.3000    6.0540   -3.8060 c3        1 UNK     -0.081400
      9 C9         -0.6880    7.4500   -3.9440 c3        1 UNK     -0.038100
     10 C10        -0.5900    7.8130   -5.4030 ca        1 UNK     -0.085300
     11 C11         0.5510    7.5000   -6.1180 ca        1 UNK     -0.126000
     12 C12         0.6400    7.8290   -7.4570 ca        1 UNK     -0.126500
     13 C13        -0.4090    8.4800   -8.0800 ca        1 UNK     -0.129000
     14 C14        -1.5480    8.7980   -7.3630 ca        1 UNK     -0.126500
     15 C15        -1.6380    8.4640   -6.0250 ca        1 UNK     -0.126000
     16 C16        -1.2360    6.9240    0.7930 ca        1 UNK     -0.392500
     17 C17        -2.5130    6.5360    1.1530 ca        1 UNK     -0.015500
     18 C18        -3.3780    7.4510    1.7240 ca        1 UNK     -0.158000
     19 C19        -2.9660    8.7540    1.9350 ca        1 UNK     -0.064000
     20 C20        -1.6900    9.1430    1.5700 ca        1 UNK     -0.158000
     21 C21        -0.8240    8.2270    1.0030 ca        1 UNK     -0.015500
     22 O22        -0.6950    4.4740    0.3000 o         1 UNK     -0.653300
     23 H23         0.5990    6.3400   -2.0360 hn        1 UNK      0.448800
     24 H24        -2.5350    6.9940   -0.9380 h1        1 UNK      0.072450
     25 H25        -3.5120    6.3620   -2.3360 h1        1 UNK      0.072450
     26 H26        -2.5340    3.8670   -2.8950 h1        1 UNK      0.072450
     27 H27        -1.1900    3.5650   -1.7080 h1        1 UNK      0.072450
     28 H28        -0.6700    5.3290   -4.3190 hc        1 UNK      0.064200
     29 H29        -2.2960    6.0490   -4.2490 hc        1 UNK      0.064200
     30 H30        -1.3190    8.1760   -3.4300 hc        1 UNK      0.048700
     31 H31         0.3080    7.4550   -3.5000 hc        1 UNK      0.048700
     32 H32         1.3720    6.9950   -5.6300 ha        1 UNK      0.131500
     33 H33         1.5300    7.5810   -8.0170 ha        1 UNK      0.133000
     34 H34        -0.3380    8.7410   -9.1250 ha        1 UNK      0.133000
     35 H35        -2.3670    9.3070   -7.8500 ha        1 UNK      0.133000
     36 H36        -2.5280    8.7130   -5.4650 ha        1 UNK      0.131500
     37 H37        -2.8350    5.5190    0.9890 ha        1 UNK      0.158500
     38 H38        -4.3760    7.1490    2.0050 ha        1 UNK      0.143500
     39 H39        -3.6420    9.4690    2.3800 ha        1 UNK      0.138000
     40 H40        -1.3700   10.1610    1.7300 ha        1 UNK      0.143500
     41 H41         0.1730    8.5300    0.7210 ha        1 UNK      0.158500
@<TRIPOS>BOND
     1    1    2 2   
     2    2    3 1   
     3    2   16 1   
     4    2   22 2   
     5    3    4 1   
     6    3   23 1   
     7    4    5 1   
     8    4    7 1   
     9    4    8 1   
    10    5    6 1   
    11    5   24 1   
    12    5   25 1   
    13    6    7 1   
    14    7   26 1   
    15    7   27 1   
    16    8    9 1   
    17    8   28 1   
    18    8   29 1   
    19    9   10 1   
    20    9   30 1   
    21    9   31 1   
    22   10   11 ar  
    23   10   15 ar  
    24   11   12 ar  
    25   11   32 1   
    26   12   13 ar  
    27   12   33 1   
    28   13   14 ar  
    29   13   34 1   
    30   14   15 ar  
    31   14   35 1   
    32   15   36 1   
    33   16   17 ar  
    34   16   21 ar  
    35   17   18 ar  
    36   17   37 1   
    37   18   19 ar  
    38   18   38 1   
    39   19   20 ar  
    40   19   39 1   
    41   20   21 ar  
    42   20   40 1   
    43   21   41 1   
@<TRIPOS>SUBSTRUCTURE
     1 UNK         1 TEMP              0 ****  ****    0 ROOT
