@<TRIPOS>MOLECULE
UNK
   39    40     1     0     0
SMALL
bcc


@<TRIPOS>ATOM
      1 O1          0.1510    6.5050    2.6260 o         1 UNK     -0.646800
      2 S2          0.4790    6.0090    1.3350 s6        1 UNK      1.572800
      3 N3          0.5810    4.3630    1.4790 n3        1 UNK     -0.896100
      4 C4          1.2060    3.5720    0.4160 cy        1 UNK      0.211200
      5 C5          0.4800    3.6640   -0.9390 cy        1 UNK      0.084400
      6 O6          1.3760    4.7580   -1.2170 os        1 UNK     -0.423600
      7 C7          2.3730    4.2880   -0.2880 cy        1 UNK      0.084400
      8 C8          1.5290    2.1400    0.8480 c3        1 UNK     -0.081400
      9 C9          0.3070    1.5250    1.5330 c3        1 UNK     -0.037100
     10 C10         0.6260    0.1150    1.9580 ca        1 UNK     -0.085300
     11 C11         0.3790   -0.9390    1.0980 ca        1 UNK     -0.126000
     12 C12         0.6760   -2.2320    1.4860 ca        1 UNK     -0.126000
     13 C13         1.2100   -2.4720    2.7380 ca        1 UNK     -0.128000
     14 C14         1.4520   -1.4190    3.6000 ca        1 UNK     -0.126000
     15 C15         1.1600   -0.1260    3.2100 ca        1 UNK     -0.126000
     16 N16        -0.8230    6.3360    0.3650 n3        1 UNK     -0.819500
     17 C17        -2.1790    6.2940    0.9190 c3        1 UNK      0.204600
     18 C18        -0.6190    6.6680   -1.0470 c3        1 UNK      0.204600
     19 O19         1.6310    6.4210    0.6130 o         1 UNK     -0.646800
     20 H20         0.2270    3.9220    2.2680 hn        1 UNK      0.447800
     21 H21         0.6320    2.7960   -1.5810 h1        1 UNK      0.071200
     22 H22        -0.5660    3.9590   -0.8610 h1        1 UNK      0.071200
     23 H23         2.8290    5.0790    0.3080 h1        1 UNK      0.071200
     24 H24         3.1050    3.6110   -0.7280 h1        1 UNK      0.071200
     25 H25         2.3680    2.1510    1.5430 hc        1 UNK      0.064700
     26 H26         1.7920    1.5470   -0.0280 hc        1 UNK      0.064700
     27 H27        -0.5320    1.5140    0.8370 hc        1 UNK      0.048700
     28 H28         0.0450    2.1180    2.4090 hc        1 UNK      0.048700
     29 H29        -0.0420   -0.7520    0.1210 ha        1 UNK      0.131000
     30 H30         0.4870   -3.0550    0.8120 ha        1 UNK      0.133000
     31 H31         1.4380   -3.4830    3.0430 ha        1 UNK      0.133000
     32 H32         1.8690   -1.6070    4.5780 ha        1 UNK      0.133000
     33 H33         1.3490    0.6970    3.8830 ha        1 UNK      0.131000
     34 H34        -2.2630    7.0210    1.7270 h1        1 UNK      0.047367
     35 H35        -2.8980    6.5350    0.1370 h1        1 UNK      0.047367
     36 H36        -2.3820    5.2960    1.3050 h1        1 UNK      0.047367
     37 H37        -0.7370    5.7690   -1.6520 h1        1 UNK      0.047367
     38 H38        -1.3520    7.4130   -1.3560 h1        1 UNK      0.047367
     39 H39         0.3860    7.0690   -1.1850 h1        1 UNK      0.047367
@<TRIPOS>BOND
     1    1    2 2   
     2    2    3 1   
     3    2   16 1   
     4    2   19 2   
     5    3    4 1   
     6    3   20 1   
     7    4    5 1   
     8    4    7 1   
     9    4    8 1   
    10    5    6 1   
    11    5   21 1   
    12    5   22 1   
    13    6    7 1   
    14    7   23 1   
    15    7   24 1   
    16    8    9 1   
    17    8   25 1   
    18    8   26 1   
    19    9   10 1   
    20    9   27 1   
    21    9   28 1   
    22   10   11 ar  
    23   10   15 ar  
    24   11   12 ar  
    25   11   29 1   
    26   12   13 ar  
    27   12   30 1   
    28   13   14 ar  
    29   13   31 1   
    30   14   15 ar  
    31   14   32 1   
    32   15   33 1   
    33   16   17 1   
    34   16   18 1   
    35   17   34 1   
    36   17   35 1   
    37   17   36 1   
    38   18   37 1   
    39   18   38 1   
    40   18   39 1   
@<TRIPOS>SUBSTRUCTURE
     1 UNK         1 TEMP              0 ****  ****    0 ROOT
