@<TRIPOS>MOLECULE
UNK
   33    35     1     0     0
SMALL
bcc


@<TRIPOS>ATOM
      1 O1          1.1320   -2.1980    0.0150 o         1 UNK     -0.641800
      2 S2          1.4470   -0.8120   -0.0160 sy        1 UNK      1.522200
      3 N3          0.0020   -0.0040    0.0020 nh        1 UNK     -0.844800
      4 C4         -0.0170    1.3870    0.0100 cc        1 UNK      0.577200
      5 N5          1.0200    2.1860    0.0040 nd        1 UNK     -0.419300
      6 O6          0.6910    3.3490    0.0130 os        1 UNK     -0.112100
      7 C7         -0.6470    3.4860    0.0270 cd        1 UNK      0.352200
      8 C8         -1.4080    4.7540    0.0410 ca        1 UNK     -0.151500
      9 C9         -2.8040    4.7330    0.0480 ca        1 UNK     -0.093500
     10 C10        -3.5080    5.9190    0.0660 ca        1 UNK     -0.134500
     11 C11        -2.8340    7.1280    0.0670 ca        1 UNK     -0.108000
     12 C12        -1.4500    7.1550    0.0540 ca        1 UNK     -0.134500
     13 C13        -0.7340    5.9760    0.0410 ca        1 UNK     -0.093500
     14 C14        -1.1630    2.2210    0.0190 cc        1 UNK     -0.378600
     15 C15         2.2640   -0.4550    1.5040 ca        1 UNK     -0.403500
     16 C16         3.1130    0.6320    1.5930 ca        1 UNK     -0.000500
     17 C17         3.7500    0.9160    2.7870 ca        1 UNK     -0.160500
     18 C18         3.5450    0.1070    3.8890 ca        1 UNK     -0.058000
     19 C19         2.6990   -0.9830    3.7990 ca        1 UNK     -0.160500
     20 C20         2.0590   -1.2640    2.6060 ca        1 UNK     -0.000500
     21 O21         2.2290   -0.2150   -1.0410 o         1 UNK     -0.641800
     22 H22        -0.8310   -0.5000    0.0070 hn        1 UNK      0.462800
     23 H23        -3.3310    3.7910    0.0430 ha        1 UNK      0.145000
     24 H24        -4.5880    5.9050    0.0760 ha        1 UNK      0.139000
     25 H25        -3.3900    8.0540    0.0770 ha        1 UNK      0.137000
     26 H26        -0.9300    8.1010    0.0540 ha        1 UNK      0.139000
     27 H27         0.3450    5.9980    0.0310 ha        1 UNK      0.145000
     28 H28        -2.2020    1.9250    0.0210 ha        1 UNK      0.176000
     29 H29         3.2770    1.2620    0.7310 ha        1 UNK      0.159500
     30 H30         4.4110    1.7670    2.8580 ha        1 UNK      0.143000
     31 H31         4.0460    0.3260    4.8200 ha        1 UNK      0.137000
     32 H32         2.5400   -1.6160    4.6590 ha        1 UNK      0.143000
     33 H33         1.3980   -2.1150    2.5360 ha        1 UNK      0.159500
@<TRIPOS>BOND
     1    1    2 2   
     2    2    3 1   
     3    2   15 1   
     4    2   21 2   
     5    3    4 1   
     6    3   22 1   
     7    4    5 2   
     8    4   14 1   
     9    5    6 1   
    10    6    7 1   
    11    7    8 1   
    12    7   14 2   
    13    8    9 ar  
    14    8   13 ar  
    15    9   10 ar  
    16    9   23 1   
    17   10   11 ar  
    18   10   24 1   
    19   11   12 ar  
    20   11   25 1   
    21   12   13 ar  
    22   12   26 1   
    23   13   27 1   
    24   14   28 1   
    25   15   16 ar  
    26   15   20 ar  
    27   16   17 ar  
    28   16   29 1   
    29   17   18 ar  
    30   17   30 1   
    31   18   19 ar  
    32   18   31 1   
    33   19   20 ar  
    34   19   32 1   
    35   20   33 1   
@<TRIPOS>SUBSTRUCTURE
     1 UNK         1 TEMP              0 ****  ****    0 ROOT
