#	Name: SM33
#	Creating user name:	iorga
#	Creation time:	09. 07. 2020 11:40

#	Modifying user name:	iorga
#	Modification time:	09. 07. 2020 11:40

#	Program:	corina 4.2.0 0026  27.09.2018

@<TRIPOS>MOLECULE
UNK 
  41   43    0    0    0
UNK L
NO_CHARGES


@<TRIPOS>ATOM
   1 O1            -1.3938     6.4195     0.4770 O.2     
   2 S2            -0.1575     5.8351     0.0908 S.o2    
   3 N3             0.0291     6.1588    -1.5225 N.am    
   4 C4            -1.0983     5.9798    -2.4407 C.3     
   5 C5            -2.4111     6.5513    -1.9002 C.3     
   6 S6            -2.6681     5.0378    -0.9335 S.3     
   7 C7            -1.6958     4.5716    -2.3926 C.3     
   8 C8            -0.7766     6.4486    -3.8611 C.3     
   9 C9            -0.0756     7.8073    -3.8033 C.3     
  10 C10            0.2412     8.2690    -5.2024 C.ar    
  11 C11            1.4505     7.9353    -5.7831 C.ar    
  12 C12            1.7391     8.3548    -7.0683 C.ar    
  13 C13            0.8229     9.1168    -7.7688 C.ar    
  14 C14           -0.3842     9.4549    -7.1861 C.ar    
  15 C15           -0.6750     9.0310    -5.9029 C.ar    
  16 C16           -0.3587     4.0922     0.2532 C.ar    
  17 C17            0.6143     3.2362    -0.2279 C.ar    
  18 C18            0.4569     1.8689    -0.0997 C.ar    
  19 C19           -0.6734     1.3575     0.5100 C.ar    
  20 C20           -1.6490     2.2132     0.9864 C.ar    
  21 C21           -1.4895     3.5807     0.8621 C.ar    
  22 O22            1.0807     6.1555     0.7102 O.2     
  23 H23            0.8849     6.4670    -1.8595 H       
  24 H24           -2.2700     7.4368    -1.2804 H       
  25 H25           -3.1649     6.6989    -2.6736 H       
  26 H26           -2.3116     4.3376    -3.2609 H       
  27 H27           -0.9555     3.7989    -2.1852 H       
  28 H28           -0.1225     5.7225    -4.3439 H       
  29 H29           -1.7010     6.5406    -4.4314 H       
  30 H30           -0.7297     8.5333    -3.3204 H       
  31 H31            0.8487     7.7153    -3.2330 H       
  32 H32            2.1682     7.3437    -5.2341 H       
  33 H33            2.6824     8.0910    -7.5234 H       
  34 H34            1.0502     9.4482    -8.7712 H       
  35 H35           -1.0999    10.0505    -7.7333 H       
  36 H36           -1.6180     9.2954    -5.4475 H       
  37 H37            1.4977     3.6358    -0.7036 H       
  38 H38            1.2171     1.2002    -0.4756 H       
  39 H39           -0.7965     0.2892     0.6102 H       
  40 H40           -2.5341     1.8135     1.4587 H       
  41 H41           -2.2495     4.2494     1.2383 H       
@<TRIPOS>BOND
   1    1    2 2
   2    2    3 am
   3    2   16 1
   4    2   22 2
   5    3    4 1
   6    3   23 1
   7    4    7 1
   8    4    5 1
   9    4    8 1
  10    5    6 1
  11    5   24 1
  12    5   25 1
  13    6    7 1
  14    7   26 1
  15    7   27 1
  16    8    9 1
  17    8   28 1
  18    8   29 1
  19    9   10 1
  20    9   30 1
  21    9   31 1
  22   10   15 ar
  23   10   11 ar
  24   11   12 ar
  25   11   32 1
  26   12   13 ar
  27   12   33 1
  28   13   14 ar
  29   13   34 1
  30   14   15 ar
  31   14   35 1
  32   15   36 1
  33   16   21 ar
  34   16   17 ar
  35   17   18 ar
  36   17   37 1
  37   18   19 ar
  38   18   38 1
  39   19   20 ar
  40   19   39 1
  41   20   21 ar
  42   20   40 1
  43   21   41 1

#	End of record

