@<TRIPOS>MOLECULE
UNK
   27    27     1     0     0
SMALL
bcc


@<TRIPOS>ATOM
      1 C1          1.4380    9.8550   -2.5080 c3        1 UNK     -0.381300
      2 S2         -0.1510    9.2570   -3.1440 s6        1 UNK      1.478600
      3 O3         -0.1910    9.3580   -4.5610 o         1 UNK     -0.644300
      4 O4         -1.2220    9.7400   -2.3450 o         1 UNK     -0.644300
      5 N5         -0.1270    7.6270   -2.8520 n         1 UNK     -0.679300
      6 C6         -0.1090    7.1700   -1.5840 c         1 UNK      0.781100
      7 O7         -0.1120    7.9550   -0.6550 o         1 UNK     -0.637100
      8 N8         -0.0890    5.8440   -1.3460 n         1 UNK     -0.523900
      9 C9         -0.0700    5.3470    0.0320 c3        1 UNK      0.123300
     10 C10        -0.0500    3.8400    0.0230 ca        1 UNK     -0.141300
     11 C11         1.1560    3.1650    0.0080 ca        1 UNK     -0.114000
     12 C12         1.1750    1.7830    0.0000 ca        1 UNK     -0.131500
     13 C13        -0.0130    1.0760    0.0080 ca        1 UNK     -0.119000
     14 C14        -1.2190    1.7510    0.0170 ca        1 UNK     -0.131500
     15 C15        -1.2380    3.1330    0.0290 ca        1 UNK     -0.114000
     16 H16         2.2520    9.3590   -3.0370 h1        1 UNK      0.130367
     17 H17         1.5090   10.9320   -2.6600 h1        1 UNK      0.130367
     18 H18         1.5100    9.6340   -1.4430 h1        1 UNK      0.130367
     19 H19        -0.1250    7.0010   -3.5930 hn        1 UNK      0.336500
     20 H20        -0.0870    5.2180   -2.0870 hn        1 UNK      0.300500
     21 H21        -0.9610    5.6950    0.5560 h1        1 UNK      0.078200
     22 H22         0.8190    5.7190    0.5400 h1        1 UNK      0.078200
     23 H23         2.0840    3.7180    0.0030 ha        1 UNK      0.142000
     24 H24         2.1180    1.2560   -0.0110 ha        1 UNK      0.136000
     25 H25         0.0020   -0.0040    0.0020 ha        1 UNK      0.134000
     26 H26        -2.1470    1.1980    0.0190 ha        1 UNK      0.136000
     27 H27        -2.1800    3.6600    0.0410 ha        1 UNK      0.142000
@<TRIPOS>BOND
     1    1    2 1   
     2    1   16 1   
     3    1   17 1   
     4    1   18 1   
     5    2    3 2   
     6    2    4 2   
     7    2    5 1   
     8    5    6 1   
     9    5   19 1   
    10    6    7 2   
    11    6    8 1   
    12    8    9 1   
    13    8   20 1   
    14    9   10 1   
    15    9   21 1   
    16    9   22 1   
    17   10   11 ar  
    18   10   15 ar  
    19   11   12 ar  
    20   11   23 1   
    21   12   13 ar  
    22   12   24 1   
    23   13   14 ar  
    24   13   25 1   
    25   14   15 ar  
    26   14   26 1   
    27   15   27 1   
@<TRIPOS>SUBSTRUCTURE
     1 UNK         1 TEMP              0 ****  ****    0 ROOT
