#	Name: SM25
#	Creating user name:	iorga
#	Creation time:	09. 07. 2020 11:40

#	Modifying user name:	iorga
#	Modification time:	09. 07. 2020 11:40

#	Program:	corina 4.2.0 0026  27.09.2018

@<TRIPOS>MOLECULE
UNK 
  35   36    0    0    0
UNK L
NO_CHARGES


@<TRIPOS>ATOM
   1 O1            -2.0952     5.2001    -1.8761 O.2     
   2 C2            -1.1555     5.8189    -2.3288 C.2     
   3 N3            -0.0945     6.1007    -1.5469 N.am    
   4 S4            -0.0740     5.6020     0.0321 S.o2    
   5 C5            -0.0501     3.8402     0.0223 C.ar    
   6 C6             1.1563     3.1654     0.0081 C.ar    
   7 C7             1.1750     1.7832     0.0004 C.ar    
   8 C8            -0.0126     1.0758     0.0080 C.ar    
   9 C9            -1.2190     1.7506     0.0173 C.ar    
  10 C10           -1.2377     3.1328     0.0294 C.ar    
  11 O11           -1.3242     5.9833     0.5896 O.2     
  12 O12            1.1750     6.0173     0.5678 O.2     
  13 C13           -1.1742     6.2728    -3.7657 C.3     
  14 C14           -2.4814     5.8273    -4.4243 C.3     
  15 C15           -2.5001     6.2811    -5.8612 C.ar    
  16 C16           -3.0310     7.5145    -6.1896 C.ar    
  17 C17           -3.0437     7.9329    -7.5071 C.ar    
  18 C18           -2.5352     7.1134    -8.4974 C.ar    
  19 C19           -2.0092     5.8778    -8.1696 C.ar    
  20 C20           -1.9916     5.4617    -6.8515 C.ar    
  21 H21            0.6570     6.5957    -1.9090 H       
  22 H22            2.0842     3.7181     0.0025 H       
  23 H23            2.1175     1.2560    -0.0111 H       
  24 H24            0.0021    -0.0041     0.0020 H       
  25 H25           -2.1469     1.1980     0.0187 H       
  26 H26           -2.1802     3.6600     0.0409 H       
  27 H27           -1.0998     7.3595    -3.8045 H       
  28 H28           -0.3309     5.8316    -4.2971 H       
  29 H29           -2.5559     4.7405    -4.3855 H       
  30 H30           -3.3247     6.2685    -3.8929 H       
  31 H31           -3.4323     8.1529    -5.4164 H       
  32 H32           -3.4551     8.8981    -7.7632 H       
  33 H33           -2.5493     7.4383    -9.5273 H       
  34 H34           -1.6122     5.2374    -8.9434 H       
  35 H35           -1.5810     4.4962    -6.5955 H       
@<TRIPOS>BOND
   1    1    2 2
   2    2    3 am
   3    2   13 1
   4    3    4 am
   5    3   21 1
   6    4    5 1
   7    4   11 2
   8    4   12 2
   9    5   10 ar
  10    5    6 ar
  11    6    7 ar
  12    6   22 1
  13    7    8 ar
  14    7   23 1
  15    8    9 ar
  16    8   24 1
  17    9   10 ar
  18    9   25 1
  19   10   26 1
  20   13   14 1
  21   13   27 1
  22   13   28 1
  23   14   15 1
  24   14   29 1
  25   14   30 1
  26   15   20 ar
  27   15   16 ar
  28   16   17 ar
  29   16   31 1
  30   17   18 ar
  31   17   32 1
  32   18   19 ar
  33   18   33 1
  34   19   20 ar
  35   19   34 1
  36   20   35 1

#	End of record

