@<TRIPOS>MOLECULE
UNK
   28    28     1     0     0
SMALL
bcc


@<TRIPOS>ATOM
      1 C1          1.4400   10.1790   -1.8190 c3        1 UNK     -0.378300
      2 S2         -0.1520    9.7090   -2.5500 s6        1 UNK      1.465600
      3 O3         -0.1950   10.0680   -3.9250 o         1 UNK     -0.643800
      4 O4         -1.2210   10.0400   -1.6740 o         1 UNK     -0.643800
      5 N5         -0.1300    8.0530   -2.5610 n         1 UNK     -0.684300
      6 C6         -0.1110    7.3730   -1.3980 c         1 UNK      0.690100
      7 O7         -0.1100    7.9730   -0.3440 o         1 UNK     -0.582100
      8 C8         -0.0900    5.8660   -1.4070 c3        1 UNK     -0.148400
      9 C9         -0.0700    5.3470    0.0320 c3        1 UNK     -0.031100
     10 C10        -0.0500    3.8400    0.0230 ca        1 UNK     -0.089300
     11 C11         1.1560    3.1650    0.0080 ca        1 UNK     -0.125500
     12 C12         1.1750    1.7830    0.0000 ca        1 UNK     -0.127000
     13 C13        -0.0130    1.0760    0.0080 ca        1 UNK     -0.127000
     14 C14        -1.2190    1.7510    0.0170 ca        1 UNK     -0.127000
     15 C15        -1.2380    3.1330    0.0290 ca        1 UNK     -0.125500
     16 H16         2.2510    9.7870   -2.4330 h1        1 UNK      0.129033
     17 H17         1.5120   11.2660   -1.7730 h1        1 UNK      0.129033
     18 H18         1.5130    9.7670   -0.8130 h1        1 UNK      0.129033
     19 H19        -0.1310    7.5740   -3.4040 hn        1 UNK      0.337500
     20 H20         0.8000    5.5180   -1.9310 hc        1 UNK      0.076200
     21 H21        -0.9800    5.4930   -1.9150 hc        1 UNK      0.076200
     22 H22        -0.9610    5.6950    0.5560 hc        1 UNK      0.068200
     23 H23         0.8190    5.7190    0.5400 hc        1 UNK      0.068200
     24 H24         2.0840    3.7180    0.0030 ha        1 UNK      0.132000
     25 H25         2.1180    1.2560   -0.0110 ha        1 UNK      0.133500
     26 H26         0.0020   -0.0040    0.0020 ha        1 UNK      0.134000
     27 H27        -2.1470    1.1980    0.0190 ha        1 UNK      0.133500
     28 H28        -2.1800    3.6600    0.0410 ha        1 UNK      0.132000
@<TRIPOS>BOND
     1    1    2 1   
     2    1   16 1   
     3    1   17 1   
     4    1   18 1   
     5    2    3 2   
     6    2    4 2   
     7    2    5 1   
     8    5    6 1   
     9    5   19 1   
    10    6    7 2   
    11    6    8 1   
    12    8    9 1   
    13    8   20 1   
    14    8   21 1   
    15    9   10 1   
    16    9   22 1   
    17    9   23 1   
    18   10   11 ar  
    19   10   15 ar  
    20   11   12 ar  
    21   11   24 1   
    22   12   13 ar  
    23   12   25 1   
    24   13   14 ar  
    25   13   26 1   
    26   14   15 ar  
    27   14   27 1   
    28   15   28 1   
@<TRIPOS>SUBSTRUCTURE
     1 UNK         1 TEMP              0 ****  ****    0 ROOT
