#	Name: SM29
#	Creating user name:	iorga
#	Creation time:	09. 07. 2020 11:40

#	Modifying user name:	iorga
#	Modification time:	09. 07. 2020 11:40

#	Program:	corina 4.2.0 0026  27.09.2018

@<TRIPOS>MOLECULE
UNK 
  34   35    0    0    0
UNK L
NO_CHARGES


@<TRIPOS>ATOM
   1 C1             0.7361     1.5316     2.8910 C.3     
   2 S2             1.1371    -0.1818     2.4504 S.o2    
   3 N3            -0.2036    -0.7261     1.6451 N.am    
   4 C4            -0.5593    -0.1537     0.3443 C.3     
   5 C5            -0.6881     1.3813     0.3544 C.3     
   6 O6             0.7054     1.3876    -0.0153 O.3     
   7 C7             0.6460     0.0663    -0.5892 C.3     
   8 C8            -1.7359    -0.8680    -0.3238 C.3     
   9 C9            -1.5684    -2.3809    -0.1692 C.3     
  10 C10           -2.7272    -3.0845    -0.8273 C.ar    
  11 C11           -3.8647    -3.3743    -0.0972 C.ar    
  12 C12           -4.9296    -4.0153    -0.7021 C.ar    
  13 C13           -4.8529    -4.3760    -2.0343 C.ar    
  14 C14           -3.7134    -4.0909    -2.7631 C.ar    
  15 C15           -2.6506    -3.4451    -2.1596 C.ar    
  16 O16            1.2005    -0.9942     3.6145 O.2     
  17 O17            2.1701    -0.2172     1.4752 O.2     
  18 H18           -0.2316     1.5609     3.3918 H       
  19 H19            1.5029     1.9240     3.5588 H       
  20 H20            0.6959     2.1393     1.9870 H       
  21 H21           -0.7533    -1.4239     2.0346 H       
  22 H22           -1.3508     1.7733    -0.4171 H       
  23 H23           -0.8845     1.8008     1.3411 H       
  24 H24            1.5078    -0.5571    -0.3509 H       
  25 H25            0.3911     0.0545    -1.6489 H       
  26 H26           -2.6668    -0.5553     0.1492 H       
  27 H27           -1.7625    -0.6117    -1.3829 H       
  28 H28           -0.6375    -2.6936    -0.6422 H       
  29 H29           -1.5417    -2.6371     0.8899 H       
  30 H30           -3.9229    -3.0964     0.9449 H       
  31 H31           -5.8198    -4.2384    -0.1326 H       
  32 H32           -5.6832    -4.8808    -2.5058 H       
  33 H33           -3.6534    -4.3729    -3.8039 H       
  34 H34           -1.7601    -3.2227    -2.7288 H       
@<TRIPOS>BOND
   1    1    2 1
   2    1   18 1
   3    1   19 1
   4    1   20 1
   5    2    3 am
   6    2   16 2
   7    2   17 2
   8    3    4 1
   9    3   21 1
  10    4    7 1
  11    4    5 1
  12    4    8 1
  13    5    6 1
  14    5   22 1
  15    5   23 1
  16    6    7 1
  17    7   24 1
  18    7   25 1
  19    8    9 1
  20    8   26 1
  21    8   27 1
  22    9   10 1
  23    9   28 1
  24    9   29 1
  25   10   15 ar
  26   10   11 ar
  27   11   12 ar
  28   11   30 1
  29   12   13 ar
  30   12   31 1
  31   13   14 ar
  32   13   32 1
  33   14   15 ar
  34   14   33 1
  35   15   34 1

#	End of record

