@<TRIPOS>MOLECULE
UNK
   39    40     1     0     0
SMALL
bcc


@<TRIPOS>ATOM
      1 O1         -0.4390    0.6040   -3.9820 o         1 UNK     -0.645800
      2 S2          0.3210    1.0220   -2.8560 s6        1 UNK      1.570800
      3 N3          1.5890   -0.0340   -2.7290 n3        1 UNK     -0.903100
      4 C4          2.4890    0.0380   -1.5750 cy        1 UNK      0.271200
      5 C5          1.6940   -0.0980   -0.2420 cy        1 UNK     -0.026300
      6 S6          1.7190    1.7310   -0.3220 ss        1 UNK     -0.327200
      7 C7          3.1280    1.4550   -1.4580 cy        1 UNK     -0.026300
      8 C8          3.5710   -1.0390   -1.6750 c3        1 UNK     -0.084400
      9 C9          4.3320   -0.8770   -2.9930 c3        1 UNK     -0.039100
     10 C10         5.3980   -1.9380   -3.0910 ca        1 UNK     -0.085300
     11 C11         6.6670   -1.6910   -2.6020 ca        1 UNK     -0.126000
     12 C12         7.6430   -2.6650   -2.6880 ca        1 UNK     -0.126000
     13 C13         7.3530   -3.8840   -3.2730 ca        1 UNK     -0.128000
     14 C14         6.0860   -4.1300   -3.7660 ca        1 UNK     -0.126000
     15 C15         5.1080   -3.1570   -3.6760 ca        1 UNK     -0.126000
     16 N16         0.9530    2.5030   -3.2430 n3        1 UNK     -0.815500
     17 C17         1.5930    2.7090   -4.5450 c3        1 UNK      0.203100
     18 C18         0.8740    3.6070   -2.2840 c3        1 UNK      0.203100
     19 O19        -0.2290    1.1490   -1.5520 o         1 UNK     -0.645800
     20 H20         1.7360   -0.7010   -3.4170 hn        1 UNK      0.448800
     21 H21         2.2670   -0.5200    0.5840 h1        1 UNK      0.088700
     22 H22         0.7030   -0.5400   -0.3520 h1        1 UNK      0.088700
     23 H23         3.0880    2.0440   -2.3750 h1        1 UNK      0.088700
     24 H24         4.1050    1.4700   -0.9750 h1        1 UNK      0.088700
     25 H25         4.2650   -0.9360   -0.8400 hc        1 UNK      0.066700
     26 H26         3.1070   -2.0250   -1.6420 hc        1 UNK      0.066700
     27 H27         3.6390   -0.9800   -3.8270 hc        1 UNK      0.049700
     28 H28         4.7960    0.1080   -3.0260 hc        1 UNK      0.049700
     29 H29         6.8940   -0.7370   -2.1490 ha        1 UNK      0.131500
     30 H30         8.6340   -2.4730   -2.3030 ha        1 UNK      0.133000
     31 H31         8.1170   -4.6440   -3.3440 ha        1 UNK      0.133000
     32 H32         5.8600   -5.0820   -4.2230 ha        1 UNK      0.133000
     33 H33         4.1180   -3.3490   -4.0620 ha        1 UNK      0.131500
     34 H34         0.8470    3.0410   -5.2680 h1        1 UNK      0.047533
     35 H35         2.3720    3.4650   -4.4520 h1        1 UNK      0.047533
     36 H36         2.0350    1.7720   -4.8850 h1        1 UNK      0.047533
     37 H37         0.2850    3.2970   -1.4210 h1        1 UNK      0.047533
     38 H38         1.8780    3.8800   -1.9600 h1        1 UNK      0.047533
     39 H39         0.3990    4.4660   -2.7570 h1        1 UNK      0.047533
@<TRIPOS>BOND
     1    1    2 2   
     2    2    3 1   
     3    2   16 1   
     4    2   19 2   
     5    3    4 1   
     6    3   20 1   
     7    4    5 1   
     8    4    7 1   
     9    4    8 1   
    10    5    6 1   
    11    5   21 1   
    12    5   22 1   
    13    6    7 1   
    14    7   23 1   
    15    7   24 1   
    16    8    9 1   
    17    8   25 1   
    18    8   26 1   
    19    9   10 1   
    20    9   27 1   
    21    9   28 1   
    22   10   11 ar  
    23   10   15 ar  
    24   11   12 ar  
    25   11   29 1   
    26   12   13 ar  
    27   12   30 1   
    28   13   14 ar  
    29   13   31 1   
    30   14   15 ar  
    31   14   32 1   
    32   15   33 1   
    33   16   17 1   
    34   16   18 1   
    35   17   34 1   
    36   17   35 1   
    37   17   36 1   
    38   18   37 1   
    39   18   38 1   
    40   18   39 1   
@<TRIPOS>SUBSTRUCTURE
     1 UNK         1 TEMP              0 ****  ****    0 ROOT
