#	Name: SM31
#	Creating user name:	iorga
#	Creation time:	09. 07. 2020 11:40

#	Modifying user name:	iorga
#	Modification time:	09. 07. 2020 11:40

#	Program:	corina 4.2.0 0026  27.09.2018

@<TRIPOS>MOLECULE
UNK 
  39   40    0    0    0
UNK L
NO_CHARGES


@<TRIPOS>ATOM
   1 O1             0.1515     6.5053     2.6260 O.2     
   2 S2             0.4785     6.0091     1.3352 S.o2    
   3 N3             0.5808     4.3625     1.4793 N.am    
   4 C4             1.2056     3.5716     0.4161 C.3     
   5 C5             0.4800     3.6636    -0.9395 C.3     
   6 O6             1.3761     4.7584    -1.2169 O.3     
   7 C7             2.3733     4.2882    -0.2878 C.3     
   8 C8             1.5294     2.1399     0.8477 C.3     
   9 C9             0.3072     1.5249     1.5326 C.3     
  10 C10            0.6261     0.1148     1.9577 C.ar    
  11 C11            0.3793    -0.9390     1.0977 C.ar    
  12 C12            0.6763    -2.2320     1.4858 C.ar    
  13 C13            1.2105    -2.4724     2.7379 C.ar    
  14 C14            1.4524    -1.4192     3.5999 C.ar    
  15 C15            1.1603    -0.1256     3.2098 C.ar    
  16 N16           -0.8229     6.3364     0.3649 N.am    
  17 C17           -2.1785     6.2944     0.9188 C.3     
  18 C18           -0.6186     6.6679    -1.0474 C.3     
  19 O19            1.6310     6.4211     0.6133 O.2     
  20 H20            0.2270     3.9217     2.2676 H       
  21 H21            0.6324     2.7956    -1.5810 H       
  22 H22           -0.5662     3.9591    -0.8606 H       
  23 H23            2.8288     5.0792     0.3080 H       
  24 H24            3.1050     3.6110    -0.7284 H       
  25 H25            2.3684     2.1511     1.5434 H       
  26 H26            1.7917     1.5469    -0.0284 H       
  27 H27           -0.5318     1.5137     0.8369 H       
  28 H28            0.0448     2.1180     2.4087 H       
  29 H29           -0.0421    -0.7516     0.1211 H       
  30 H30            0.4869    -3.0549     0.8125 H       
  31 H31            1.4384    -3.4831     3.0428 H       
  32 H32            1.8694    -1.6070     4.5783 H       
  33 H33            1.3490     0.6972     3.8834 H       
  34 H34           -2.2634     7.0207     1.7271 H       
  35 H35           -2.8983     6.5355     0.1366 H       
  36 H36           -2.3825     5.2956     1.3049 H       
  37 H37           -0.7371     5.7691    -1.6524 H       
  38 H38           -1.3524     7.4127    -1.3555 H       
  39 H39            0.3857     7.0687    -1.1849 H       
@<TRIPOS>BOND
   1    1    2 2
   2    2    3 am
   3    2   16 am
   4    2   19 2
   5    3    4 1
   6    3   20 1
   7    4    7 1
   8    4    5 1
   9    4    8 1
  10    5    6 1
  11    5   21 1
  12    5   22 1
  13    6    7 1
  14    7   23 1
  15    7   24 1
  16    8    9 1
  17    8   25 1
  18    8   26 1
  19    9   10 1
  20    9   27 1
  21    9   28 1
  22   10   15 ar
  23   10   11 ar
  24   11   12 ar
  25   11   29 1
  26   12   13 ar
  27   12   30 1
  28   13   14 ar
  29   13   31 1
  30   14   15 ar
  31   14   32 1
  32   15   33 1
  33   16   17 1
  34   16   18 1
  35   17   34 1
  36   17   35 1
  37   17   36 1
  38   18   37 1
  39   18   38 1
  40   18   39 1

#	End of record

