#	Name: SM36
#	Creating user name:	iorga
#	Creation time:	09. 07. 2020 11:40

#	Modifying user name:	iorga
#	Modification time:	09. 07. 2020 11:40

#	Program:	corina 4.2.0 0026  27.09.2018

@<TRIPOS>MOLECULE
UNK 
  42   44    0    0    0
UNK L
NO_CHARGES


@<TRIPOS>ATOM
   1 O1             0.6047     1.8005     1.2454 O.2     
   2 S2             1.2791     0.5760     1.5007 S.o2    
   3 N3             0.1137    -0.5999     1.5420 N.am    
   4 C4            -1.0987    -0.4019     2.3402 C.3     
   5 C5            -2.3393    -1.0494     1.7207 C.3     
   6 S6            -3.3721     0.2672     2.4235 S.o     
   7 O7            -4.1649     0.7600     1.2214 O.3     
   8 C8            -1.7269     0.9803     2.1475 C.3     
   9 C9            -0.8980    -0.7717     3.8112 C.3     
  10 C10           -0.1582    -2.1077     3.9048 C.3     
  11 C11            0.0394    -2.4720     5.3537 C.ar    
  12 C12            1.1799    -2.0638     6.0196 C.ar    
  13 C13            1.3590    -2.3938     7.3500 C.ar    
  14 C14            0.4024    -3.1410     8.0115 C.ar    
  15 C15           -0.7356    -3.5537     7.3441 C.ar    
  16 C16           -0.9171    -3.2192     6.0152 C.ar    
  17 C17            1.9472     0.7054     3.1259 C.ar    
  18 C18            1.3851     1.5802     4.0367 C.ar    
  19 C19            1.9063     1.6782     5.3133 C.ar    
  20 C20            2.9961     0.9090     5.6758 C.ar    
  21 C21            3.5616     0.0380     4.7634 C.ar    
  22 C22            3.0371    -0.0638     3.4884 C.ar    
  23 O23            2.3233     0.0772     0.6761 O.2     
  24 H24            0.2338    -1.4197     1.0376 H       
  25 H25           -2.3250    -1.0471     0.6308 H       
  26 H26           -2.5600    -2.0340     2.1332 H       
  27 H27           -1.4349     1.6947     2.9172 H       
  28 H28           -1.5937     1.3749     1.1402 H       
  29 H29           -0.3115     0.0037     4.3040 H       
  30 H30           -1.8686    -0.8588     4.2996 H       
  31 H31           -0.7447    -2.8831     3.4119 H       
  32 H32            0.8123    -2.0206     3.4164 H       
  33 H33            1.9293    -1.4838     5.5015 H       
  34 H34            2.2483    -2.0717     7.8713 H       
  35 H35            0.5444    -3.4026     9.0497 H       
  36 H36           -1.4828    -4.1377     7.8609 H       
  37 H37           -1.8061    -3.5419     5.4937 H       
  38 H38            0.5363     2.1844     3.7521 H       
  39 H39            1.4647     2.3589     6.0261 H       
  40 H40            3.4061     0.9888     6.6718 H       
  41 H41            4.4133    -0.5627     5.0465 H       
  42 H42            3.4791    -0.7441     2.7754 H       
@<TRIPOS>BOND
   1    1    2 2
   2    2    3 am
   3    2   17 1
   4    2   23 2
   5    3    4 1
   6    3   24 1
   7    4    8 1
   8    4    5 1
   9    4    9 1
  10    5    6 1
  11    5   25 1
  12    5   26 1
  13    6    7 1
  14    6    8 1
  15    8   27 1
  16    8   28 1
  17    9   10 1
  18    9   29 1
  19    9   30 1
  20   10   11 1
  21   10   31 1
  22   10   32 1
  23   11   16 ar
  24   11   12 ar
  25   12   13 ar
  26   12   33 1
  27   13   14 ar
  28   13   34 1
  29   14   15 ar
  30   14   35 1
  31   15   16 ar
  32   15   36 1
  33   16   37 1
  34   17   22 ar
  35   17   18 ar
  36   18   19 ar
  37   18   38 1
  38   19   20 ar
  39   19   39 1
  40   20   21 ar
  41   20   40 1
  42   21   22 ar
  43   21   41 1
  44   22   42 1

#	End of record

