#	Name: SM39
#	Creating user name:	iorga
#	Creation time:	09. 07. 2020 11:40

#	Modifying user name:	iorga
#	Modification time:	09. 07. 2020 11:40

#	Program:	corina 4.2.0 0026  27.09.2018

@<TRIPOS>MOLECULE
UNK 
  43   45    0    0    0
UNK L
NO_CHARGES


@<TRIPOS>ATOM
   1 O1             0.5370     7.7981    -3.4612 O.2     
   2 S2             0.4485     7.8090    -2.0430 S.o2    
   3 N3            -0.0324     6.2897    -1.5928 N.am    
   4 C4            -1.1748     5.6563    -2.2561 C.3     
   5 C5            -1.0831     4.1289    -2.2847 C.3     
   6 S6            -1.9677     4.1098    -3.8694 S.o2    
   7 C7            -1.0777     5.6884    -3.7831 C.3     
   8 O8            -3.3722     4.2616    -3.7158 O.2     
   9 O9            -1.3981     3.2084    -4.8087 O.2     
  10 C10           -2.5162     6.1686    -1.7278 C.3     
  11 C11           -2.6392     5.8349    -0.2397 C.3     
  12 C12           -4.0108     6.2220     0.2502 C.ar    
  13 C13           -4.2314     7.4885     0.7583 C.ar    
  14 C14           -5.4907     7.8451     1.2032 C.ar    
  15 C15           -6.5269     6.9317     1.1497 C.ar    
  16 C16           -6.3052     5.6635     0.6464 C.ar    
  17 C17           -5.0471     5.3086     0.1966 C.ar    
  18 C18           -0.8624     8.9133    -1.6348 C.ar    
  19 C19           -0.9680     9.4164    -0.3516 C.ar    
  20 C20           -1.9967    10.2825    -0.0312 C.ar    
  21 C21           -2.9198    10.6454    -0.9941 C.ar    
  22 C22           -2.8173    10.1381    -2.2759 C.ar    
  23 C23           -1.7855     9.2763    -2.5977 C.ar    
  24 O24            1.5391     8.1513    -1.1988 O.2     
  25 H25            0.4424     5.8190    -0.8900 H       
  26 H26           -0.0594     3.7625    -2.3611 H       
  27 H27           -1.6385     3.6511    -1.4777 H       
  28 H28           -1.6286     6.5159    -4.2302 H       
  29 H29           -0.0529     5.6231    -4.1488 H       
  30 H30           -2.5718     7.2486    -1.8638 H       
  31 H31           -3.3287     5.6912    -2.2755 H       
  32 H32           -2.4897     4.7652    -0.0936 H       
  33 H33           -1.8843     6.3871     0.3201 H       
  34 H34           -3.4207     8.2006     0.8043 H       
  35 H35           -5.6639     8.8358     1.5968 H       
  36 H36           -7.5097     7.2089     1.5013 H       
  37 H37           -7.1147     4.9498     0.6048 H       
  38 H38           -4.8737     4.3177    -0.1963 H       
  39 H39           -0.2470     9.1326     0.4007 H       
  40 H40           -2.0795    10.6752     0.9714 H       
  41 H41           -3.7237    11.3217    -0.7437 H       
  42 H42           -3.5411    10.4182    -3.0270 H       
  43 H43           -1.7032     8.8829    -3.6001 H       
@<TRIPOS>BOND
   1    1    2 2
   2    2    3 am
   3    2   18 1
   4    2   24 2
   5    3    4 1
   6    3   25 1
   7    4    7 1
   8    4    5 1
   9    4   10 1
  10    5    6 1
  11    5   26 1
  12    5   27 1
  13    6    7 1
  14    6    8 2
  15    6    9 2
  16    7   28 1
  17    7   29 1
  18   10   11 1
  19   10   30 1
  20   10   31 1
  21   11   12 1
  22   11   32 1
  23   11   33 1
  24   12   17 ar
  25   12   13 ar
  26   13   14 ar
  27   13   34 1
  28   14   15 ar
  29   14   35 1
  30   15   16 ar
  31   15   36 1
  32   16   17 ar
  33   16   37 1
  34   17   38 1
  35   18   23 ar
  36   18   19 ar
  37   19   20 ar
  38   19   39 1
  39   20   21 ar
  40   20   40 1
  41   21   22 ar
  42   21   41 1
  43   22   23 ar
  44   22   42 1
  45   23   43 1

#	End of record

