@<TRIPOS>MOLECULE
UNK
   41    42     1     0     0
SMALL
bcc


@<TRIPOS>ATOM
      1 O1         -0.9740   -1.8880   -1.9000 o         1 UNK     -0.643300
      2 S2         -0.6780   -0.4980   -1.8950 s6        1 UNK      1.575800
      3 N3         -0.1690   -0.1340   -0.3620 n3        1 UNK     -0.902100
      4 C4          0.3320    1.2090   -0.0560 cy        1 UNK      0.324200
      5 C5          0.0300    1.6520    1.3770 cy        1 UNK     -0.337100
      6 S6         -0.0970    3.3730    0.8140 s6        1 UNK      1.335000
      7 C7         -0.5700    2.3240   -0.5890 cy        1 UNK     -0.337100
      8 O8          1.1720    3.9870    0.6370 o         1 UNK     -0.639800
      9 O9         -1.2020    4.0600    1.3840 o         1 UNK     -0.639800
     10 C10         1.8020    1.3870   -0.4440 c3        1 UNK     -0.092400
     11 C11         2.6430    0.3040    0.2340 c3        1 UNK     -0.031100
     12 C12         4.1030    0.5570   -0.0400 ca        1 UNK     -0.087300
     13 C13         4.7040   -0.0050   -1.1510 ca        1 UNK     -0.126500
     14 C14         6.0430    0.2310   -1.4060 ca        1 UNK     -0.125500
     15 C15         6.7820    1.0190   -0.5440 ca        1 UNK     -0.127000
     16 C16         6.1810    1.5760    0.5700 ca        1 UNK     -0.125500
     17 C17         4.8420    1.3450    0.8220 ca        1 UNK     -0.126500
     18 N18         0.6200   -0.2940   -2.9030 n3        1 UNK     -0.817500
     19 C19         1.6300   -1.3480   -3.0200 c3        1 UNK      0.203600
     20 C20         0.7570    0.9420   -3.6790 c3        1 UNK      0.203600
     21 O21        -1.6240    0.5000   -2.2520 o         1 UNK     -0.643300
     22 H22        -0.2030   -0.8090    0.3340 hn        1 UNK      0.452800
     23 H23        -0.9110    1.2560    1.7590 h1        1 UNK      0.136450
     24 H24         0.8610    1.4850    2.0620 h1        1 UNK      0.136450
     25 H25        -0.2410    2.7190   -1.5500 h1        1 UNK      0.136450
     26 H26        -1.6270    2.0570   -0.5870 h1        1 UNK      0.136450
     27 H27         1.9050    1.3030   -1.5250 hc        1 UNK      0.060700
     28 H28         2.1460    2.3700   -0.1210 hc        1 UNK      0.060700
     29 H29         2.4660    0.3270    1.3100 hc        1 UNK      0.048700
     30 H30         2.3630   -0.6730   -0.1590 hc        1 UNK      0.048700
     31 H31         4.1280   -0.6240   -1.8220 ha        1 UNK      0.130000
     32 H32         6.5120   -0.2040   -2.2760 ha        1 UNK      0.134000
     33 H33         7.8280    1.2000   -0.7400 ha        1 UNK      0.134000
     34 H34         6.7590    2.1920    1.2440 ha        1 UNK      0.134000
     35 H35         4.3730    1.7800    1.6920 ha        1 UNK      0.130000
     36 H36         1.3490   -2.0340   -3.8200 h1        1 UNK      0.046700
     37 H37         2.5970   -0.9010   -3.2490 h1        1 UNK      0.046700
     38 H38         1.6960   -1.8940   -2.0790 h1        1 UNK      0.046700
     39 H39         1.3820    1.6470   -3.1310 h1        1 UNK      0.046700
     40 H40         1.2200    0.7180   -4.6400 h1        1 UNK      0.046700
     41 H41        -0.2270    1.3800   -3.8420 h1        1 UNK      0.046700
@<TRIPOS>BOND
     1    1    2 2   
     2    2    3 1   
     3    2   18 1   
     4    2   21 2   
     5    3    4 1   
     6    3   22 1   
     7    4    5 1   
     8    4    7 1   
     9    4   10 1   
    10    5    6 1   
    11    5   23 1   
    12    5   24 1   
    13    6    7 1   
    14    6    8 2   
    15    6    9 2   
    16    7   25 1   
    17    7   26 1   
    18   10   11 1   
    19   10   27 1   
    20   10   28 1   
    21   11   12 1   
    22   11   29 1   
    23   11   30 1   
    24   12   13 ar  
    25   12   17 ar  
    26   13   14 ar  
    27   13   31 1   
    28   14   15 ar  
    29   14   32 1   
    30   15   16 ar  
    31   15   33 1   
    32   16   17 ar  
    33   16   34 1   
    34   17   35 1   
    35   18   19 1   
    36   18   20 1   
    37   19   36 1   
    38   19   37 1   
    39   19   38 1   
    40   20   39 1   
    41   20   40 1   
    42   20   41 1   
@<TRIPOS>SUBSTRUCTURE
     1 UNK         1 TEMP              0 ****  ****    0 ROOT
