#	Name: SM45
#	Creating user name:	iorga
#	Creation time:	09. 07. 2020 11:40

#	Modifying user name:	iorga
#	Modification time:	09. 07. 2020 11:40

#	Program:	corina 4.2.0 0026  27.09.2018

@<TRIPOS>MOLECULE
UNK 
  33   35    0    0    0
UNK L
NO_CHARGES


@<TRIPOS>ATOM
   1 O1             9.4313    -1.9481    -0.1315 O.2     
   2 S2             8.0779    -2.3787    -0.0863 S.o2    
   3 N3             7.1509    -1.0066    -0.0704 N.am    
   4 C4             5.7504    -1.1056    -0.0577 C.2     
   5 N5             5.0254    -2.2331    -0.0571 N.2     
   6 N6             3.7758    -1.9304    -0.0440 N.2     
   7 C7             4.8620    -0.0774    -0.0499 C.2     
   8 N8             3.6239    -0.6523    -0.0357 N.pl3   
   9 C9             2.3994     0.0308    -0.0208 C.ar    
  10 C10            1.2067    -0.6797    -0.0132 C.ar    
  11 C11            0.0021    -0.0041     0.0020 C.ar    
  12 C12           -0.0167     1.3786     0.0096 C.ar    
  13 C13            1.1697     2.0889     0.0021 C.ar    
  14 C14            2.3774     1.4188    -0.0131 C.ar    
  15 C15            7.7661    -3.2012    -1.6130 C.ar    
  16 C16            6.7532    -4.1379    -1.6992 C.ar    
  17 C17            6.5054    -4.7797    -2.8982 C.ar    
  18 C18            7.2773    -4.4923    -4.0084 C.ar    
  19 C19            8.2936    -3.5593    -3.9208 C.ar    
  20 C20            8.5380    -2.9138    -2.7232 C.ar    
  21 O21            7.5643    -3.2218     0.9359 O.2     
  22 H22            7.5755    -0.1344    -0.0699 H       
  23 H23            5.0890     0.9785    -0.0522 H       
  24 H24            1.2207    -1.7596    -0.0195 H       
  25 H25           -0.9261    -0.5562     0.0083 H       
  26 H26           -0.9598     1.9047     0.0170 H       
  27 H27            1.1519     3.1688     0.0078 H       
  28 H28            3.3036     1.9742    -0.0194 H       
  29 H29            6.1529    -4.3657    -0.8307 H       
  30 H30            5.7117    -5.5088    -2.9665 H       
  31 H31            7.0867    -4.9969    -4.9440 H       
  32 H32            8.8970    -3.3350    -4.7881 H       
  33 H33            9.3322    -2.1851    -2.6547 H       
@<TRIPOS>BOND
   1    1    2 2
   2    2    3 am
   3    2   15 1
   4    2   21 2
   5    3    4 1
   6    3   22 1
   7    4    5 1
   8    4    7 2
   9    5    6 2
  10    6    8 1
  11    7    8 1
  12    7   23 1
  13    8    9 1
  14    9   14 ar
  15    9   10 ar
  16   10   11 ar
  17   10   24 1
  18   11   12 ar
  19   11   25 1
  20   12   13 ar
  21   12   26 1
  22   13   14 ar
  23   13   27 1
  24   14   28 1
  25   15   20 ar
  26   15   16 ar
  27   16   17 ar
  28   16   29 1
  29   17   18 ar
  30   17   30 1
  31   18   19 ar
  32   18   31 1
  33   19   20 ar
  34   19   32 1
  35   20   33 1

#	End of record

