#	Name: SM41
#	Creating user name:	iorga
#	Creation time:	09. 07. 2020 11:40

#	Modifying user name:	iorga
#	Modification time:	09. 07. 2020 11:40

#	Program:	corina 4.2.0 0026  27.09.2018

@<TRIPOS>MOLECULE
UNK 
  26   27    0    0    0
UNK L
NO_CHARGES


@<TRIPOS>ATOM
   1 O1            -2.4342     0.7435     0.0434 O.2     
   2 S2            -1.4563     1.7742     0.0186 S.o2    
   3 N3            -0.0111     0.9658     0.0074 N.am    
   4 C4             1.1844     1.6779    -0.0002 C.2     
   5 N5             1.3219     2.9792     0.0059 N.2     
   6 O6             2.4853     3.3075    -0.0032 O.3     
   7 C7             3.3026     2.2389    -0.0169 C.2     
   8 C8             4.7812     2.2538    -0.0308 C.ar    
   9 C9             5.4940     1.0541    -0.0379 C.ar    
  10 C10            6.8734     1.0750    -0.0552 C.ar    
  11 C11            7.5501     2.2818    -0.0557 C.ar    
  12 C12            6.8493     3.4746    -0.0433 C.ar    
  13 C13            5.4698     3.4676    -0.0309 C.ar    
  14 C14            2.4948     1.1375    -0.0099 C.2     
  15 C15           -1.4964     2.6518    -1.5685 C.3     
  16 O16           -1.3346     2.6947     1.0943 O.2     
  17 H17            0.0021    -0.0041     0.0020 H       
  18 H18            4.9670     0.1115    -0.0337 H       
  19 H19            7.4263     0.1473    -0.0645 H       
  20 H20            8.6300     2.2926    -0.0654 H       
  21 H21            7.3834     4.4133    -0.0438 H       
  22 H22            4.9239     4.3995    -0.0216 H       
  23 H23            2.7864     0.0976    -0.0129 H       
  24 H24           -1.4399     1.9306    -2.3839 H       
  25 H25           -2.4248     3.2175    -1.6475 H       
  26 H26           -0.6488     3.3344    -1.6278 H       
@<TRIPOS>BOND
   1    1    2 2
   2    2    3 am
   3    2   15 1
   4    2   16 2
   5    3    4 1
   6    3   17 1
   7    4   14 1
   8    4    5 2
   9    5    6 1
  10    6    7 1
  11    7    8 1
  12    7   14 2
  13    8   13 ar
  14    8    9 ar
  15    9   10 ar
  16    9   18 1
  17   10   11 ar
  18   10   19 1
  19   11   12 ar
  20   11   20 1
  21   12   13 ar
  22   12   21 1
  23   13   22 1
  24   14   23 1
  25   15   24 1
  26   15   25 1
  27   15   26 1

#	End of record

