@<TRIPOS>MOLECULE
UNK
   26    27     1     0     0
SMALL
bcc


@<TRIPOS>ATOM
      1 O1         -2.4340    0.7440    0.0430 o         1 UNK     -0.641300
      2 S2         -1.4560    1.7740    0.0190 s6        1 UNK      1.472900
      3 N3         -0.0110    0.9660    0.0070 nh        1 UNK     -0.851800
      4 C4          1.1840    1.6780   -0.0000 cc        1 UNK      0.570200
      5 N5          1.3220    2.9790    0.0060 nd        1 UNK     -0.421300
      6 O6          2.4850    3.3070   -0.0030 os        1 UNK     -0.108100
      7 C7          3.3030    2.2390   -0.0170 cd        1 UNK      0.355200
      8 C8          4.7810    2.2540   -0.0310 ca        1 UNK     -0.154500
      9 C9          5.4940    1.0540   -0.0380 ca        1 UNK     -0.092500
     10 C10         6.8730    1.0750   -0.0550 ca        1 UNK     -0.134500
     11 C11         7.5500    2.2820   -0.0560 ca        1 UNK     -0.106000
     12 C12         6.8490    3.4750   -0.0430 ca        1 UNK     -0.134500
     13 C13         5.4700    3.4680   -0.0310 ca        1 UNK     -0.092500
     14 C14         2.4950    1.1370   -0.0100 cc        1 UNK     -0.377600
     15 C15        -1.4960    2.6520   -1.5690 c3        1 UNK     -0.376300
     16 O16        -1.3350    2.6950    1.0940 o         1 UNK     -0.641300
     17 H17         0.0020   -0.0040    0.0020 hn        1 UNK      0.466800
     18 H18         4.9670    0.1110   -0.0340 ha        1 UNK      0.145000
     19 H19         7.4260    0.1470   -0.0650 ha        1 UNK      0.140000
     20 H20         8.6300    2.2930   -0.0650 ha        1 UNK      0.138000
     21 H21         7.3830    4.4130   -0.0440 ha        1 UNK      0.140000
     22 H22         4.9240    4.3990   -0.0220 ha        1 UNK      0.145000
     23 H23         2.7860    0.0980   -0.0130 ha        1 UNK      0.178000
     24 H24        -1.4400    1.9310   -2.3840 h1        1 UNK      0.127033
     25 H25        -2.4250    3.2170   -1.6480 h1        1 UNK      0.127033
     26 H26        -0.6490    3.3340   -1.6280 h1        1 UNK      0.127033
@<TRIPOS>BOND
     1    1    2 2   
     2    2    3 1   
     3    2   15 1   
     4    2   16 2   
     5    3    4 1   
     6    3   17 1   
     7    4    5 2   
     8    4   14 1   
     9    5    6 1   
    10    6    7 1   
    11    7    8 1   
    12    7   14 2   
    13    8    9 ar  
    14    8   13 ar  
    15    9   10 ar  
    16    9   18 1   
    17   10   11 ar  
    18   10   19 1   
    19   11   12 ar  
    20   11   20 1   
    21   12   13 ar  
    22   12   21 1   
    23   13   22 1   
    24   14   23 1   
    25   15   24 1   
    26   15   25 1   
    27   15   26 1   
@<TRIPOS>SUBSTRUCTURE
     1 UNK         1 TEMP              0 ****  ****    0 ROOT
