#	Name: SM27
#	Creating user name:	iorga
#	Creation time:	09. 07. 2020 11:40

#	Modifying user name:	iorga
#	Modification time:	09. 07. 2020 11:40

#	Program:	corina 4.2.0 0026  27.09.2018

@<TRIPOS>MOLECULE
UNK 
  34   35    0    0    0
UNK L
NO_CHARGES


@<TRIPOS>ATOM
   1 O1             0.3235     2.7098    -4.4476 O.2     
   2 S2            -0.7929     2.5197    -3.5892 S.o2    
   3 C3            -1.6284     4.0985    -3.2726 C.3     
   4 C4            -2.2952     4.5896    -4.5591 C.3     
   5 C5            -2.9893     5.9011    -4.2960 C.ar    
   6 C6            -4.3097     5.9145    -3.8869 C.ar    
   7 C7            -4.9449     7.1174    -3.6410 C.ar    
   8 C8            -4.2628     8.3072    -3.8138 C.ar    
   9 C9            -2.9441     8.2940    -4.2284 C.ar    
  10 C10           -2.3073     7.0910    -4.4693 C.ar    
  11 N11           -0.1225     2.1075    -2.1322 N.am    
  12 C12           -0.9825     1.8800    -0.9683 C.3     
  13 C13           -2.2401     1.0742    -1.3001 C.3     
  14 C14           -0.2268     1.3701     0.2733 C.3     
  15 O15           -1.0305     2.3108     1.0135 O.3     
  16 C16           -1.2575     3.1495    -0.1404 C.3     
  17 O17           -1.7437     1.4940    -3.8402 O.2     
  18 H18           -2.3856     3.9604    -2.5007 H       
  19 H19           -0.8982     4.8352    -2.9377 H       
  20 H20           -1.5381     4.7276    -5.3310 H       
  21 H21           -3.0254     3.8529    -4.8940 H       
  22 H22           -4.8438     4.9850    -3.7558 H       
  23 H23           -5.9752     7.1277    -3.3174 H       
  24 H24           -4.7602     9.2471    -3.6252 H       
  25 H25           -2.4113     9.2236    -4.3637 H       
  26 H26           -1.2771     7.0807    -4.7932 H       
  27 H27            0.8397     2.0168    -2.0495 H       
  28 H28           -2.8702     1.0026    -0.4136 H       
  29 H29           -2.7908     1.5725    -2.0980 H       
  30 H30           -1.9553     0.0736    -1.6252 H       
  31 H31           -0.4315     0.3276     0.5169 H       
  32 H32            0.8373     1.6063     0.2697 H       
  33 H33           -0.5086     3.9309    -0.2693 H       
  34 H34           -2.2792     3.5194    -0.2267 H       
@<TRIPOS>BOND
   1    1    2 2
   2    2    3 1
   3    2   11 am
   4    2   17 2
   5    3    4 1
   6    3   18 1
   7    3   19 1
   8    4    5 1
   9    4   20 1
  10    4   21 1
  11    5   10 ar
  12    5    6 ar
  13    6    7 ar
  14    6   22 1
  15    7    8 ar
  16    7   23 1
  17    8    9 ar
  18    8   24 1
  19    9   10 ar
  20    9   25 1
  21   10   26 1
  22   11   12 1
  23   11   27 1
  24   12   16 1
  25   12   13 1
  26   12   14 1
  27   13   28 1
  28   13   29 1
  29   13   30 1
  30   14   15 1
  31   14   31 1
  32   14   32 1
  33   15   16 1
  34   16   33 1
  35   16   34 1

#	End of record

