@<TRIPOS>MOLECULE
UNK
   33    35     1     0     0
SMALL
bcc


@<TRIPOS>ATOM
      1 O1          9.4310   -1.9480   -0.1320 o         1 UNK     -0.644300
      2 S2          8.0780   -2.3790   -0.0860 sy        1 UNK      1.526200
      3 N3          7.1510   -1.0070   -0.0700 nh        1 UNK     -0.839800
      4 C4          5.7500   -1.1060   -0.0580 cc        1 UNK      0.517200
      5 N5          5.0250   -2.2330   -0.0570 nc        1 UNK     -0.380000
      6 N6          3.7760   -1.9300   -0.0440 nd        1 UNK     -0.133800
      7 C7          4.8620   -0.0770   -0.0500 cd        1 UNK     -0.265600
      8 N8          3.6240   -0.6520   -0.0360 na        1 UNK      0.127300
      9 C9          2.3990    0.0310   -0.0210 ca        1 UNK      0.016800
     10 C10         1.2070   -0.6800   -0.0130 ca        1 UNK     -0.129000
     11 C11         0.0020   -0.0040    0.0020 ca        1 UNK     -0.115500
     12 C12        -0.0170    1.3790    0.0100 ca        1 UNK     -0.128000
     13 C13         1.1700    2.0890    0.0020 ca        1 UNK     -0.115500
     14 C14         2.3770    1.4190   -0.0130 ca        1 UNK     -0.129000
     15 C15         7.7660   -3.2010   -1.6130 ca        1 UNK     -0.397500
     16 C16         6.7530   -4.1380   -1.6990 ca        1 UNK     -0.001000
     17 C17         6.5050   -4.7800   -2.8980 ca        1 UNK     -0.161500
     18 C18         7.2770   -4.4920   -4.0080 ca        1 UNK     -0.060000
     19 C19         8.2940   -3.5590   -3.9210 ca        1 UNK     -0.161500
     20 C20         8.5380   -2.9140   -2.7230 ca        1 UNK     -0.001000
     21 O21         7.5640   -3.2220    0.9360 o         1 UNK     -0.644300
     22 H22         7.5750   -0.1340   -0.0700 hn        1 UNK      0.459800
     23 H23         5.0890    0.9790   -0.0520 h4        1 UNK      0.198000
     24 H24         1.2210   -1.7600   -0.0190 ha        1 UNK      0.151000
     25 H25        -0.9260   -0.5560    0.0080 ha        1 UNK      0.141000
     26 H26        -0.9600    1.9050    0.0170 ha        1 UNK      0.140000
     27 H27         1.1520    3.1690    0.0080 ha        1 UNK      0.141000
     28 H28         3.3040    1.9740   -0.0190 ha        1 UNK      0.151000
     29 H29         6.1530   -4.3660   -0.8310 ha        1 UNK      0.159000
     30 H30         5.7120   -5.5090   -2.9670 ha        1 UNK      0.142000
     31 H31         7.0870   -4.9970   -4.9440 ha        1 UNK      0.136000
     32 H32         8.8970   -3.3350   -4.7880 ha        1 UNK      0.142000
     33 H33         9.3320   -2.1850   -2.6550 ha        1 UNK      0.159000
@<TRIPOS>BOND
     1    1    2 2   
     2    2    3 1   
     3    2   15 1   
     4    2   21 2   
     5    3    4 1   
     6    3   22 1   
     7    4    5 1   
     8    4    7 2   
     9    5    6 2   
    10    6    8 1   
    11    7    8 1   
    12    7   23 1   
    13    8    9 1   
    14    9   10 ar  
    15    9   14 ar  
    16   10   11 ar  
    17   10   24 1   
    18   11   12 ar  
    19   11   25 1   
    20   12   13 ar  
    21   12   26 1   
    22   13   14 ar  
    23   13   27 1   
    24   14   28 1   
    25   15   16 ar  
    26   15   20 ar  
    27   16   17 ar  
    28   16   29 1   
    29   17   18 ar  
    30   17   30 1   
    31   18   19 ar  
    32   18   31 1   
    33   19   20 ar  
    34   19   32 1   
    35   20   33 1   
@<TRIPOS>SUBSTRUCTURE
     1 UNK         1 TEMP              0 ****  ****    0 ROOT
