#	Name: SM35
#	Creating user name:	iorga
#	Creation time:	09. 07. 2020 11:40

#	Modifying user name:	iorga
#	Modification time:	09. 07. 2020 11:40

#	Program:	corina 4.2.0 0026  27.09.2018

@<TRIPOS>MOLECULE
UNK 
  35   36    0    0    0
UNK L
NO_CHARGES


@<TRIPOS>ATOM
   1 C1            -1.4668    -1.5581    -1.5447 C.3     
   2 S2            -2.5562    -0.1930    -2.0348 S.o2    
   3 N3            -2.3180     0.9632    -0.8735 N.am    
   4 C4            -0.9959     1.5719    -0.7061 C.3     
   5 C5             0.0114     0.6443    -0.0227 C.3     
   6 S6            -0.6567     1.1155     1.5969 S.o     
   7 O7            -2.0188     0.4366     1.6161 O.3     
   8 C8            -0.9201     2.5274     0.4870 C.3     
   9 C9            -0.4652     2.1848    -2.0036 C.3     
  10 C10           -1.5189     3.1253    -2.5918 C.3     
  11 C11           -0.9499     3.8248    -3.7992 C.ar    
  12 C12           -0.2951     5.0334    -3.6531 C.ar    
  13 C13            0.2310     5.6727    -4.7601 C.ar    
  14 C14            0.0932     5.1086    -6.0145 C.ar    
  15 C15           -0.5663     3.9025    -6.1613 C.ar    
  16 C16           -1.0878     3.2607    -5.0537 C.ar    
  17 O17           -3.9195    -0.5646    -1.8850 O.2     
  18 O18           -2.0892     0.4121    -3.2327 O.2     
  19 H19           -1.6485    -1.8109    -0.5001 H       
  20 H20           -1.6703    -2.4277    -2.1696 H       
  21 H21           -0.4270    -1.2561    -1.6698 H       
  22 H22           -3.0538     1.2374    -0.3040 H       
  23 H23           -0.1448    -0.4078    -0.2609 H       
  24 H24            1.0462     0.9552    -0.1663 H       
  25 H25           -0.0649     3.2017     0.4422 H       
  26 H26           -1.8562     3.0530     0.6752 H       
  27 H27            0.4460     2.7453    -1.7945 H       
  28 H28           -0.2475     1.3909    -2.7180 H       
  29 H29           -2.3965     2.5494    -2.8855 H       
  30 H30           -1.8035     3.8653    -1.8437 H       
  31 H31           -0.1912     5.4764    -2.6736 H       
  32 H32            0.7459     6.6152    -4.6455 H       
  33 H33            0.5003     5.6102    -6.8800 H       
  34 H34           -0.6743     3.4620    -7.1414 H       
  35 H35           -1.6033     2.3186    -5.1684 H       
@<TRIPOS>BOND
   1    1    2 1
   2    1   19 1
   3    1   20 1
   4    1   21 1
   5    2    3 am
   6    2   17 2
   7    2   18 2
   8    3    4 1
   9    3   22 1
  10    4    8 1
  11    4    5 1
  12    4    9 1
  13    5    6 1
  14    5   23 1
  15    5   24 1
  16    6    7 1
  17    6    8 1
  18    8   25 1
  19    8   26 1
  20    9   10 1
  21    9   27 1
  22    9   28 1
  23   10   11 1
  24   10   29 1
  25   10   30 1
  26   11   16 ar
  27   11   12 ar
  28   12   13 ar
  29   12   31 1
  30   13   14 ar
  31   13   32 1
  32   14   15 ar
  33   14   33 1
  34   15   16 ar
  35   15   34 1
  36   16   35 1

#	End of record

