#	Name: SM30
#	Creating user name:	iorga
#	Creation time:	09. 07. 2020 11:40

#	Modifying user name:	iorga
#	Modification time:	09. 07. 2020 11:40

#	Program:	corina 4.2.0 0026  27.09.2018

@<TRIPOS>MOLECULE
UNK 
  41   43    0    0    0
UNK L
NO_CHARGES


@<TRIPOS>ATOM
   1 O1             1.1728     6.1240     0.4860 O.2     
   2 S2            -0.1340     5.7580     0.0647 S.o2    
   3 N3            -0.1809     5.9955    -1.5735 N.am    
   4 C4            -1.4003     5.6856    -2.3240 C.3     
   5 C5            -2.6915     6.1776    -1.6434 C.3     
   6 O6            -2.7296     4.8742    -1.0283 O.3     
   7 C7            -1.9421     4.2659    -2.0717 C.3     
   8 C8            -1.3005     6.0545    -3.8055 C.3     
   9 C9            -0.6881     7.4498    -3.9435 C.3     
  10 C10           -0.5898     7.8131    -5.4027 C.ar    
  11 C11            0.5513     7.5002    -6.1176 C.ar    
  12 C12            0.6396     7.8292    -7.4573 C.ar    
  13 C13           -0.4090     8.4805    -8.0796 C.ar    
  14 C14           -1.5479     8.7981    -7.3635 C.ar    
  15 C15           -1.6383     8.4644    -6.0250 C.ar    
  16 C16           -1.2363     6.9241     0.7926 C.ar    
  17 C17           -2.5132     6.5364     1.1531 C.ar    
  18 C18           -3.3782     7.4514     1.7237 C.ar    
  19 C19           -2.9658     8.7538     1.9346 C.ar    
  20 C20           -1.6905     9.1427     1.5697 C.ar    
  21 C21           -0.8243     8.2268     1.0027 C.ar    
  22 O22           -0.6954     4.4740     0.3002 O.2     
  23 H23            0.5990     6.3398    -2.0362 H       
  24 H24           -2.5348     6.9937    -0.9380 H       
  25 H25           -3.5124     6.3624    -2.3363 H       
  26 H26           -2.5341     3.8670    -2.8953 H       
  27 H27           -1.1905     3.5652    -1.7081 H       
  28 H28           -0.6700     5.3286    -4.3190 H       
  29 H29           -2.2961     6.0491    -4.2492 H       
  30 H30           -1.3186     8.1757    -3.4300 H       
  31 H31            0.3075     7.4551    -3.4999 H       
  32 H32            1.3723     6.9953    -5.6303 H       
  33 H33            1.5295     7.5814    -8.0167 H       
  34 H34           -0.3383     8.7415    -9.1252 H       
  35 H35           -2.3670     9.3072    -7.8496 H       
  36 H36           -2.5280     8.7129    -5.4655 H       
  37 H37           -2.8353     5.5187     0.9886 H       
  38 H38           -4.3759     7.1486     2.0050 H       
  39 H39           -3.6416     9.4687     2.3805 H       
  40 H40           -1.3699    10.1614     1.7304 H       
  41 H41            0.1733     8.5298     0.7207 H       
@<TRIPOS>BOND
   1    1    2 2
   2    2    3 am
   3    2   16 1
   4    2   22 2
   5    3    4 1
   6    3   23 1
   7    4    7 1
   8    4    5 1
   9    4    8 1
  10    5    6 1
  11    5   24 1
  12    5   25 1
  13    6    7 1
  14    7   26 1
  15    7   27 1
  16    8    9 1
  17    8   28 1
  18    8   29 1
  19    9   10 1
  20    9   30 1
  21    9   31 1
  22   10   15 ar
  23   10   11 ar
  24   11   12 ar
  25   11   32 1
  26   12   13 ar
  27   12   33 1
  28   13   14 ar
  29   13   34 1
  30   14   15 ar
  31   14   35 1
  32   15   36 1
  33   16   21 ar
  34   16   17 ar
  35   17   18 ar
  36   17   37 1
  37   18   19 ar
  38   18   38 1
  39   19   20 ar
  40   19   39 1
  41   20   21 ar
  42   20   40 1
  43   21   41 1

#	End of record

