@<TRIPOS>MOLECULE
UNK
   35    36     1     0     0
SMALL
bcc


@<TRIPOS>ATOM
      1 C1         -1.4670   -1.5580   -1.5450 c3        1 UNK     -0.367300
      2 S2         -2.5560   -0.1930   -2.0350 s6        1 UNK      1.468900
      3 N3         -2.3180    0.9630   -0.8730 n3        1 UNK     -0.907100
      4 C4         -0.9960    1.5720   -0.7060 cy        1 UNK      0.302200
      5 C5          0.0110    0.6440   -0.0230 cy        1 UNK     -0.102100
      6 S6         -0.6570    1.1160    1.5970 s4        1 UNK      0.245600
      7 O7         -2.0190    0.4370    1.6160 o         1 UNK     -0.485200
      8 C8         -0.9200    2.5270    0.4870 cy        1 UNK     -0.102100
      9 C9         -0.4650    2.1850   -2.0040 c3        1 UNK     -0.094400
     10 C10        -1.5190    3.1250   -2.5920 c3        1 UNK     -0.024100
     11 C11        -0.9500    3.8250   -3.7990 ca        1 UNK     -0.090300
     12 C12        -0.2950    5.0330   -3.6530 ca        1 UNK     -0.125500
     13 C13         0.2310    5.6730   -4.7600 ca        1 UNK     -0.131500
     14 C14         0.0930    5.1090   -6.0150 ca        1 UNK     -0.131000
     15 C15        -0.5660    3.9030   -6.1610 ca        1 UNK     -0.131500
     16 C16        -1.0880    3.2610   -5.0540 ca        1 UNK     -0.125500
     17 O17        -3.9200   -0.5650   -1.8850 o         1 UNK     -0.655800
     18 O18        -2.0890    0.4120   -3.2330 o         1 UNK     -0.655800
     19 H19        -1.6490   -1.8110   -0.5000 h1        1 UNK      0.116033
     20 H20        -1.6700   -2.4280   -2.1700 h1        1 UNK      0.116033
     21 H21        -0.4270   -1.2560   -1.6700 h1        1 UNK      0.116033
     22 H22        -3.0540    1.2370   -0.3040 hn        1 UNK      0.456800
     23 H23        -0.1450   -0.4080   -0.2610 h1        1 UNK      0.099450
     24 H24         1.0460    0.9550   -0.1660 h1        1 UNK      0.099450
     25 H25        -0.0650    3.2020    0.4420 h1        1 UNK      0.099450
     26 H26        -1.8560    3.0530    0.6750 h1        1 UNK      0.099450
     27 H27         0.4460    2.7450   -1.7950 hc        1 UNK      0.064700
     28 H28        -0.2470    1.3910   -2.7180 hc        1 UNK      0.064700
     29 H29        -2.3970    2.5490   -2.8850 hc        1 UNK      0.048700
     30 H30        -1.8040    3.8650   -1.8440 hc        1 UNK      0.048700
     31 H31        -0.1910    5.4760   -2.6740 ha        1 UNK      0.145500
     32 H32         0.7460    6.6150   -4.6450 ha        1 UNK      0.130500
     33 H33         0.5000    5.6100   -6.8800 ha        1 UNK      0.129000
     34 H34        -0.6740    3.4620   -7.1410 ha        1 UNK      0.130500
     35 H35        -1.6030    2.3190   -5.1680 ha        1 UNK      0.145500
@<TRIPOS>BOND
     1    1    2 1   
     2    1   19 1   
     3    1   20 1   
     4    1   21 1   
     5    2    3 1   
     6    2   17 2   
     7    2   18 2   
     8    3    4 1   
     9    3   22 1   
    10    4    5 1   
    11    4    8 1   
    12    4    9 1   
    13    5    6 1   
    14    5   23 1   
    15    5   24 1   
    16    6    7 2   
    17    6    8 1   
    18    8   25 1   
    19    8   26 1   
    20    9   10 1   
    21    9   27 1   
    22    9   28 1   
    23   10   11 1   
    24   10   29 1   
    25   10   30 1   
    26   11   12 ar  
    27   11   16 ar  
    28   12   13 ar  
    29   12   31 1   
    30   13   14 ar  
    31   13   32 1   
    32   14   15 ar  
    33   14   33 1   
    34   15   16 ar  
    35   15   34 1   
    36   16   35 1   
@<TRIPOS>SUBSTRUCTURE
     1 UNK         1 TEMP              0 ****  ****    0 ROOT
