#	Name: UNK
#	Creating user name:	iorga
#	Creation time:	10. 07. 2020 09:50

#	Modifying user name:	iorga
#	Modification time:	10. 07. 2020 09:50

#	Program:	corina 4.2.0 0026  27.09.2018

@<TRIPOS>MOLECULE
UNK
  29   30    0    0    0
SMALL
NO_CHARGES


@<TRIPOS>ATOM
   1 O1            -2.3285    -0.1731     0.0243 O.2     
   2 C2            -1.2662    -0.7638     0.0105 C.2     
   3 C3             0.0021    -0.0041     0.0020 C.ar    
   4 C4            -0.0169     1.3915     0.0097 C.ar    
   5 C5             1.1702     2.0945     0.0021 C.ar    
   6 C6             2.3776     1.4190    -0.0130 C.ar    
   7 C7             2.4034     0.0357    -0.0207 C.ar    
   8 C8             1.2235    -0.6793    -0.0133 C.ar    
   9 N9            -1.2445    -2.1114     0.0031 N.am    
  10 S10           -2.6651    -2.9624     0.0126 S.o2    
  11 C11           -3.4932    -2.6121    -1.5027 C.ar    
  12 C12           -4.3747    -1.5501    -1.5791 C.ar    
  13 C13           -5.0207    -1.2723    -2.7693 C.ar    
  14 C14           -4.7930    -2.0629    -3.8802 C.ar    
  15 C15           -3.9154    -3.1281    -3.8023 C.ar    
  16 C16           -3.2655    -3.4027    -2.6136 C.ar    
  17 O17           -2.3095    -4.3374    -0.0330 O.2     
  18 O18           -3.4629    -2.3999     1.0452 O.2     
  19 H19           -0.9587     1.9200     0.0170 H       
  20 H20            1.1570     3.1744     0.0081 H       
  21 H21            3.3041     1.9740    -0.0192 H       
  22 H22            3.3492    -0.4856    -0.0329 H       
  23 H23            1.2450    -1.7591    -0.0196 H       
  24 H24           -0.3968    -2.5828    -0.0079 H       
  25 H25           -4.5559    -0.9351    -0.7100 H       
  26 H26           -5.7066    -0.4403    -2.8300 H       
  27 H27           -5.3011    -1.8486    -4.8088 H       
  28 H28           -3.7378    -3.7460    -4.6701 H       
  29 H29           -2.5801    -4.2351    -2.5526 H       
@<TRIPOS>BOND
   1    1    2 2
   2    2    3 1
   3    2    9 am
   4    3    8 ar
   5    3    4 ar
   6    4    5 ar
   7    4   19 1
   8    5    6 ar
   9    5   20 1
  10    6    7 ar
  11    6   21 1
  12    7    8 ar
  13    7   22 1
  14    8   23 1
  15    9   10 am
  16    9   24 1
  17   10   11 1
  18   10   17 2
  19   10   18 2
  20   11   16 ar
  21   11   12 ar
  22   12   13 ar
  23   12   25 1
  24   13   14 ar
  25   13   26 1
  26   14   15 ar
  27   14   27 1
  28   15   16 ar
  29   15   28 1
  30   16   29 1

#	End of record

