#	Name: SM37
#	Creating user name:	iorga
#	Creation time:	09. 07. 2020 11:40

#	Modifying user name:	iorga
#	Modification time:	09. 07. 2020 11:40

#	Program:	corina 4.2.0 0026  27.09.2018

@<TRIPOS>MOLECULE
UNK 
  40   41    0    0    0
UNK L
NO_CHARGES


@<TRIPOS>ATOM
   1 O1            -3.0677    -1.6105    -2.4976 O.2     
   2 S2            -1.9084    -0.8634    -2.1555 S.o2    
   3 N3            -2.4411     0.6199    -1.6472 N.am    
   4 C4            -1.4824     1.6158    -1.1622 C.3     
   5 C5            -0.8180     1.2184     0.1580 C.3     
   6 S6            -2.2599     1.8386     1.0678 S.o     
   7 O7            -3.3353     0.8103     0.7472 O.3     
   8 C8            -2.1486     2.8042    -0.4651 C.3     
   9 C9            -0.4788     2.0350    -2.2384 C.3     
  10 C10           -1.2299     2.4130    -3.5166 C.3     
  11 C11           -0.2415     2.8259    -4.5766 C.ar    
  12 C12            0.1376     4.1504    -4.6898 C.ar    
  13 C13            1.0480     4.5283    -5.6590 C.ar    
  14 C14            1.5712     3.5835    -6.5217 C.ar    
  15 C15            1.1881     2.2598    -6.4119 C.ar    
  16 C16            0.2818     1.8810    -5.4393 C.ar    
  17 N17           -1.2356    -1.6185    -0.8442 N.am    
  18 C18           -2.0957    -2.2682     0.1480 C.3     
  19 C19            0.2196    -1.6367    -0.6763 C.3     
  20 O20           -0.8455    -0.6176    -3.0661 O.2     
  21 H21           -3.3879     0.8293    -1.6706 H       
  22 H22           -0.6773     0.1424     0.2600 H       
  23 H23            0.0932     1.7796     0.3651 H       
  24 H24           -1.4942     3.6716    -0.3777 H       
  25 H25           -3.1220     3.0569    -0.8854 H       
  26 H26            0.0942     2.8928    -1.8864 H       
  27 H27            0.1982     1.2064    -2.4464 H       
  28 H28           -1.8030     1.5552    -3.8685 H       
  29 H29           -1.9069     3.2416    -3.3086 H       
  30 H30           -0.2745     4.8893    -4.0186 H       
  31 H31            1.3470     5.5625    -5.7450 H       
  32 H32            2.2791     3.8795    -7.2818 H       
  33 H33            1.5967     1.5217    -7.0861 H       
  34 H34           -0.0178     0.8469    -5.3537 H       
  35 H35           -2.2587    -3.3074    -0.1374 H       
  36 H36           -1.6150    -2.2309     1.1255 H       
  37 H37           -3.0533    -1.7495     0.1940 H       
  38 H38            0.6825    -1.0264    -1.4518 H       
  39 H39            0.4773    -1.2356     0.3039 H       
  40 H40            0.5817    -2.6617    -0.7561 H       
@<TRIPOS>BOND
   1    1    2 2
   2    2    3 am
   3    2   17 am
   4    2   20 2
   5    3    4 1
   6    3   21 1
   7    4    8 1
   8    4    5 1
   9    4    9 1
  10    5    6 1
  11    5   22 1
  12    5   23 1
  13    6    7 1
  14    6    8 1
  15    8   24 1
  16    8   25 1
  17    9   10 1
  18    9   26 1
  19    9   27 1
  20   10   11 1
  21   10   28 1
  22   10   29 1
  23   11   16 ar
  24   11   12 ar
  25   12   13 ar
  26   12   30 1
  27   13   14 ar
  28   13   31 1
  29   14   15 ar
  30   14   32 1
  31   15   16 ar
  32   15   33 1
  33   16   34 1
  34   17   18 1
  35   17   19 1
  36   18   35 1
  37   18   36 1
  38   18   37 1
  39   19   38 1
  40   19   39 1
  41   19   40 1

#	End of record

